*  **********************************************
*  *             TSMC SPICE MODEL               *
*  **********************************************
*  
*    PROCESS :  0.35um SILICIDE (SPQM,3.3V/5V) LOGIC
*    MODEL   :  BSIM3 ( V3.1 )
*    DOC NO. :  TA-1095-6009
*    VERSION :  V2.4
*    DATE    :  June 21, 2000
*    HSPICE VERSION : H98.2
********************************************************************************
*                                                                             
*       SPICE model release notes for H97.2, H97.4 and H98.2 and H98.4:         
*                                                                         
*                                                                             
* (1) New parameter "CALCACM" is added in the H98.2 & H98.4                    
*                                                                             
*
*     In H97.2 & H97.4, the default values of AS/AD and PS/PD are zero when
* Bsim3v3.1 model with ACM=12 is used. This results in zero junction capacitance
* and incorrect junction leakage current, if AS/AD and PS/PD are not specified
* in the netlist. In H98.2 & H98.4, with CALCACM >0, the default calculation of 
* AS/AD and PS/PD will be calculated using HDIF. When CALCACM=0, the default is 
* zero for AS/AD and PS/PD.
*
* (2) New parameter "VFBFLAG" is added in H98.2 & H98.4
*
*     In H97.2 & H97.4, The capacitance model CAPMOD=0 normally uses a
* threshold voltage defined as Vth = vfbc + phi+ k1 * sqrt(phi - vbs), where
* vfbc is derived from the model parameter VFBCV. In this way, the CV will not
* track with VTH0 for corner simulation. In H98.2 and H98.4, VFBFLAG=1 uses
* Vth=vfb + phi + k1 * sqrt(phi - vbs), where vfb is identical to the  
* flatband voltage used in the drain current calculations. The resultant CV
* simulation will track with change in VTH0, which is more physical for corner
* case simulation. The VFBFLAG default value is zero.
*
******************************************************************************
*
******************************************************************************
*                                                                            * 
*       IN THIS MODEL LIB CONTAINS :                                         *  
*                                                                            *
*                                                                            *
*       1.LIB TT                                                             *
*             SS                                                             *
*             FF                                                             *
*             SF                                                             *
*             FS                                                             *
*        ( 3.3V normal devices & 3.3V NMOS with ESD implant with different   *
*          geometric and corner models)                                      *
*                                                                            *
*       2.LIB TT_5V                                                          *
*             SS_5V                                                          *
*             FF_5V                                                          *
*             SF_5V                                                          *
*             FS_5V                                                          *
*        ( 5V normal devices & 5V NMOS with ESD implant with different       *
*          geometric and corner models)                                      *
*                                                                            *
*       3.LIB BIP                                                            *
*        ( P+/NW/PSUB vertical PNP bipolar )                                 *
*                                                                            *
*       4.LIB DIO                                                            *
*        ( P+/NW, N+/PW & NW/PW diode )                                      *
*                                                                            *
*       5.LIB RES                                                            *
*        ( resistor model )                                                  *
*                                                                            *
******************************************************************************
**************************************************************************
*
* 1)To use these models directly by programming in this style: 
*
*     .lib 'lib_path/lib_name' model_name 
*     
*
*  EX: .lib '/home/user/tsmc/LOGIC/logs355v.l' TT   
*        
*             for typical N,PMOS
*      
*      .lib '/home/user/tsmc/LOGIC/logs355v.l' TT_5V   
*        
*             for typical 5V N,PMOS
*      
*  note:
*      corner_name
*       TT : typical model
*       SS : Slow NMOS Slow PMOS model
*       FF : Fast NMOS Fast PMOS model
*       SF : Slow NMOS Fast PMOS model
*       FS : Fast NMOS Slow PMOS model
*      
*       TT_5V : typical model for 5V device
*       SS_5V : Slow NMOS Slow PMOS model for 5V device
*       FF_5V : Fast NMOS Fast PMOS model for 5V device
*       SF_5V : Slow NMOS Fast PMOS model for 5V device
*       FS_5V : Fast NMOS Slow PMOS model for 5V device
*
* 2)HDIF depends on your layout poly spacer to contact center distance.
*   The value listed here is TSMC testkey value. you can change it
*   according to your layout by change the parameters :
*  ( hdifn: NMOS; hdifp: PMOS; hdifn5: 5V NMOS; hdifp5: 5V PMOS )
*
* 3)Please note that AS/AD and PS/PD need to be specified to avoid
*   zero junction capacitance and to result in correct junction leakage
*   current.
*
***************************************************************
*                                                             *
*               NORMAL DEVICES LIB                            *
*                                                             *
***************************************************************
*
* **************** CORNER_LIB OF TYPICAL MODEL ****************************
.LIB TT
.param toxn = 7.5e-9 toxp = 7.7e-9  toxe = 7.5E-09
+dxl = 0 dxw = 0
+dvtn = 0 dvtp = 0  delvtoe= 0
+cjn = 1.01893e-3 cjp = 1.416829e-3  cje = 0.00101893
+cjswn = 3.057956e-10 cjswp = 4.173308e-10  cjswe  = 3.057956E-10
+cgon = 2.79009e-10 cgop = 2.30748e-10  cgoe = 2.79009E-10
+cjswgn = 1.524314e-10 cjswgp = 1.013197e-10  cjswge = 1.524314E-10
+hdifn = 3.8e-07 hdifp = 3.8e-07  hdife = 9.55E-07
.lib 'g:\icdesign\035.l' MOS
.ENDL TT
**************** CORNER_LIB OF  SNSP   MODEL ****************************
.LIB SS
.param toxn = 8.0e-9 toxp = 8.2e-9  toxe = 8E-09 
+dxl = 4e-8 dxw = -6e-8
+dvtn = 0.1 dvtp = -0.1  delvtoe= 0.1
+cjn = 1.120823e-3 cjp = 1.558512e-3  cje = 0.001120823
+cjswn = 3.36375e-10 cjswp = 4.59064e-10  cjswe = 3.363752E-10
+cgon = 3.0691e-10 cgop = 2.53823e-10  cgoe = 3.069099E-10
+cjswgn = 1.67675e-10 cjswgp = 1.11452e-10  cjswge = 1.676745E-10
+hdifn = 3.8e-07 hdifp = 3.8e-07  hdife  = 9.55E-07
.lib 'g:\icdesign\035.l' MOS
.ENDL SS
**************** CORNER_LIB OF  FNFP   MODEL ****************************
.LIB FF
.param toxn = 7.0e-9 toxp = 7.2e-9  toxe = 7E-09
+dxl = -4e-8 dxw = 6e-8  
+dvtn = -0.1 dvtp = 0.1  delvtoe= -0.1
+cjn = 9.17037e-4 cjp = 1.275146e-3  cje = 0.000917037
+cjswn = 2.75216e-10 cjswp = 3.75598e-10  cjswe = 2.75216E-10
+cgon = 2.51108e-10 cgop = 2.07673e-10  cgoe = 2.511081E-10
+cjswgn = 1.37188e-10 cjswgp = 9.11877e-11  cjswge = 1.371883E-10
+hdifn = 3.8e-07 hdifp = 3.8e-07  hdife = 9.55E-07
.lib 'g:\icdesign\035.l' MOS
.ENDL FF
**************** CORNER_LIB OF  SNFP   MODEL ****************************
.LIB SF
.param toxn = 7.5e-9 toxp = 7.7e-9  toxe = 7.5E-09 
+dxl = 0 dxw = 0  
+dvtn = 0.1 dvtp = 0.1  delvtoe= 0.1
+cjn = 1.120823e-3 cjp = 1.275146e-3  cje = 0.001120823 
+cjswn = 3.36375e-10 cjswp = 3.75598e-10  cjswe = 3.363752E-10
+cgon = 2.79009e-10 cgop = 2.30748e-10  cgoe = 2.79009E-10
+cjswgn = 1.67675e-10 cjswgp = 9.11877e-11  cjswge = 1.676745E-10
+hdifn = 3.8e-07 hdifp = 3.8e-07  hdife = 9.55E-07
.lib 'g:\icdesign\035.l' MOS
.ENDL SF
**************** CORNER_LIB OF  FNSP   MODEL ****************************
.LIB FS
.param toxn = 7.5e-9 toxp = 7.7e-9  toxe = 7.5E-09
+dxl = 0 dxw = 0
+dvtn = -0.1 dvtp = -0.1  delvtoe= -0.1
+cjn = 9.17037e-4 cjp = 1.558512e-3  cje = 0.000917037
+cjswn = 2.75216e-10 cjswp = 4.59064e-10  cjswe = 2.75216E-10
+cgon = 2.79009e-10 cgop = 2.30748e-10  cgoe = 2.79009E-10
+cjswgn = 1.37188e-10 cjswgp = 1.11452e-10  cjswge = 1.371883E-10
+hdifn = 3.8e-07 hdifp = 3.8e-07  hdife = 9.55E-07
.lib 'g:\icdesign\035.l' MOS
.ENDL FS
**************************************************************************
*
*
***************************************************************
*                                                             *
*               5V DEVICES LIB                                *
*                                                             *
***************************************************************
*
**************** CORNER_LIB OF TYPICAL MODEL (5V DEVICES) **************
.LIB TT_5V
.param toxn5 = 1.46e-8 toxp5 = 1.48e-8  toxe5 = 1.46E-08
+dxl5 = 0 dxw5 = 0
+dvtn5 = 0 dvtp5 = 0  dvte5 = 0
+cjn5 = 1.03764e-3 cjp5 = 1.428223e-3  cje5= 8.854906E-4 
+cjswn5 = 2.761046e-10 cjswp5 = 3.852659e-10  cjswe5= 6.434521E-10
+cgon5 = 1.665234e-10 cgop5 = 2.00908e-10   cgoe5= 2.5406E-10
+cjswgn5 = 1.391065e-10 cjswgp5 = 9.91118E-11  cjswge5 = 4.849398E-10
+hdifn5 = 3.8e-07 hdifp5 = 3.8e-07  hdife5= 9.55E-07
.lib 'g:\icdesign\035.l' MOS_5V
.ENDL TT_5V
**************** CORNER_LIB OF  SNSP   MODEL (5V DEVICES) **************
.LIB SS_5V
.param toxn5 = 1.56e-8 toxp5 = 1.58e-8  toxe5 = 1.56e-08
+dxl5 = 4e-8 dxw5 = -6e-8  
+dvtn5 = 0.1 dvtp5 = -0.15  dvte5 = 0.1
+cjn5 = 1.141400e-3 cjp5 = 1.57105e-3  cje5= 9.740397e-04 
+cjswn5 = 3.03755e-10 cjswp5 = 4.23792e-10  cjswe5= 7.077973e-10
+cgon5 = 1.83176e-10 cgop5 = 2.20999e-10  cgoe5= 2.794660e-10 
+cjswgn5 = 1.53017e-10 cjswgp5 = 1.09902e-10  cjswge5 = 5.334338e-10
+hdifn5 = 3.8e-07 hdifp5 = 3.8e-07  hdife5= 9.550000e-07
.lib 'g:\icdesign\035.l' MOS_5V
.ENDL SS_5V
**************** CORNER_LIB OF  FNFP   MODEL (5V DEVICES) **************
.LIB FF_5V
.param toxn5 = 1.36e-8 toxp5 = 1.38e-8  toxe5 = 1.360e-08
+dxl5 = -4e-8 dxw5 = 6e-8
+dvtn5 = -0.1 dvtp5 = 0.15  dvte5 = -0.1
+cjn5 = 9.024975e-4 cjp5 = 1.287522e-3  cje5= 7.969416e-04 
+cjswn5 = 2.48527e-10 cjswp5 = 3.46739e-10  cjswe5= 5.791069e-10
+cgon5 = 1.49871e-10 cgop5 = 1.80817e-10  cgoe5= 2.286540e-10 
+cjswgn5 = 1.25196e-10 cjswgp5 = 8.99201e-11  cjswge5 = 4.364458e-10
+hdifn5 = 3.8e-07 hdifp5 = 3.8e-07  hdife5= 9.55e-07
.lib 'g:\icdesign\035.l' MOS_5V
.ENDL FF_5V
**************** CORNER_LIB OF  SNFP   MODEL (5V DEVICES) **************
.LIB SF_5V
.param toxn5 = 1.46e-8 toxp5 = 1.48e-8  toxe5 = 1.460e-08
+dxl5 = 0 dxw5 = 0
+dvtn5 = 0.1 dvtp5 = 0.15  dvte5 = 0.1
+cjn5 = 1.141400e-3 cjp5 = 1.287522e-3  cje5= 9.740397e-04 
+cjswn5 = 3.03755e-10 cjswp5 = 3.46739e-10  cjswe5= 7.077973e-10
+cgon5 = 1.665234e-10 cgop5 = 2.00908e-10  cgoe5= 2.540600e-10
+cjswgn5 = 1.53017e-10 cjswgp5 = 8.99201e-11  cjswge5 = 5.334338e-10
+hdifn5 = 3.8e-07 hdifp5 = 3.8e-07  hdife5= 9.55e-07
.lib 'g:\icdesign\035.l' MOS_5V
.ENDL SF_5V
**************** CORNER_LIB OF  FNSP   MODEL (5V DEVICES) **************
.LIB FS_5V
.param toxn5 = 1.46e-8 toxp5 = 1.48e-8  toxe5 = 1.460e-08 
+dxl5 = 0 dxw5 = 0
+dvtn5 = -0.1 dvtp5 = -0.15  dvte5 = -0.1
+cjn5 = 9.024975e-4 cjp5 = 1.57105e-3  cje5= 7.969416e-04 
+cjswn5 = 2.48527e-10 cjswp5 = 4.23792e-10  cjswe5= 5.791069e-10
+cgon5 = 1.665234e-10 cgop5 = 2.00908e-10  cgoe5= 2.540600e-10 
+cjswgn5 = 1.25196e-10 cjswgp5 = 1.09902e-10  cjswge5 = 4.364458e-10
+hdifn5 = 3.8e-07 hdifp5 = 3.8e-07  hdife5= 9.55e-07
.lib 'g:\icdesign\035.l' MOS_5V
.ENDL FS_5V
**************************************************************************
*
*
***************************************************************
*                                                             *
*                                                             *
*               NORMAL DEVICES MODEL                          *
*                                                             *
*                                                             *
*                                                             *
***************************************************************
*
**************************************************************************
*
*
***************************************************************
*                                                             *
*                 NMOS DEVICES MODEL                          *
*                                                             *
***************************************************************
*
.LIB MOS
*
*
*
.MODEL N.1             NMOS   (                    LMIN    = '1.197E-06-dxl' 
+LMAX    = 2.001E-05       WMIN    = '1.195E-06-dxw' WMAX    = '1.9995E-05-dxw'
+LEVEL   = 49              TNOM    = 25              VERSION = 3.1             
+ACM     = 12              LDIF    = 1.2E-07         HDIF    = hdifn           
+RSH     = 3.5             RD      = 0               RS      = 0               
+TOX     = toxn            XJ      = 1E-07           NCH     = 2.3579E+17      
+LLN     = 1               LWN     = 1               WLN     = 1               
+WWN     = 1               LINT    = 4E-08           LL      = 0               
+LW      = 0               LWL     = 0               WINT    = 4E-08           
+WL      = 0               WW      = 0               WWL     = 0               
+MOBMOD  = 1               BINUNIT = 2               XL      = '4E-08+dxl'     
+XW      = '1.5E-07+dxw'   DWG     = 0               DWB     = 0               
+VTH0    = 'dvtn+0.584049' LVTH0   = 1.612384E-08    WVTH0   = -2.086162E-08   
+PVTH0   = -1.937772E-14   K1      = 0.5220252       LK1     = 9.809426E-09    
+WK1     = -2.215848E-08   PK1     = -1.081879E-14   K2      = 0.02709618      
+LK2     = -6.58759E-09    WK2     = 5.844335E-09    PK2     = 3.4708E-15      
+K3      = 0               DVT0    = 0               DVT1    = 0               
+DVT2    = 0               DVT0W   = 0               DVT1W   = 0               
+DVT2W   = 0               NLX     = 0               W0      = 0               
+K3B     = 0               VSAT    = 250216.5        LVSAT   = -0.004321351    
+WVSAT   = 0.001311575     PVSAT   = -2.617906E-08   UA      = 3.225504E-11    
+LUA     = -3.731902E-17   WUA     = -6.47358E-16    PUA     = 7.48993E-22     
+UB      = 1.830791E-18    LUB     = 1.122256E-24    WUB     = 5.871964E-26    
+PUB     = -2.144195E-30   UC      = 4.717094E-11    LUC     = 1.083152E-16    
+WUC     = -2.836673E-17   PUC     = -1.365643E-22   RDSW    = 750             
+PRWB    = 0               PRWG    = 0               WR      = 1               
+U0      = 0.04674038      LU0     = 2.895707E-09    WU0     = -1.659836E-08   
+PU0     = -8.598878E-16   A0      = 0.5300233       LA0     = 5.224595E-07    
+WA0     = 9.500091E-08    PA0     = 1.359913E-13    KETA    = -0.008359211    
+LKETA   = 2.404593E-08    WKETA   = 2.47412E-08     PKETA   = -3.134335E-14   
+A1      = 0               A2      = 0.99            AGS     = 0.02004817      
+LAGS    = -9.614005E-10   WAGS    = 3.052623E-09    PAGS    = -6.093041E-14   
+B0      = 0               B1      = 0               VOFF    = -0.1432328      
+LVOFF   = 3.7672E-08      WVOFF   = 2.783267E-08    PVOFF   = -1.658179E-14   
+NFACTOR = 1.071695        LNFACTOR= -3.191425E-07   WNFACTOR= -3.198483E-07   
+PNFACTOR= 4.284332E-13    CIT     = -7.649919E-05   LCIT    = 2.725173E-10    
+WCIT    = 4.707361E-10    PCIT    = -4.079043E-16   CDSC    = 0               
+CDSCB   = 0               CDSCD   = 0               ETA0    = 0.0002182418    
+LETA0   = 4.891615E-10    WETA0   = -2.223897E-10   PETA0   = 3.413627E-16    
+ETAB    = 1.655216E-05    LETAB   = -1.915085E-11   WETAB   = -2.093848E-11   
+PETAB   = 2.422582E-17    DSUB    = 0               PCLM    = 0.1632256       
+LPCLM   = 7.340164E-07    WPCLM   = 7.600176E-09    PPCLM   = -1.516986E-13   
+PDIBLC1 = 1E-05           PDIBLC2 = -0.000118956    LPDIBLC2= 3.047963E-09    
+WPDIBLC2= 7.355327E-12    PPDIBLC2= -6.049224E-16   PDIBLCB = 0.138753        
+DROUT   = 0               PSCBE1  = 4.710407E+08    LPSCBE1 = -47.67879       
+WPSCBE1 = -73.52711       PPSCBE1 = -1.742797E-05   PSCBE2  = 0.0001511273    
+LPSCBE2 = -1.696461E-10   WPSCBE2 = -1.405065E-10   PPSCBE2 = 1.594718E-16    
+PVAG    = 0               DELTA   = 0.01            ALPHA0  = 2.2E-06   
+BETA0   = 20              KT1     = -0.3129373      LKT1    = 2.640371E-08    
+WKT1    = 3.672218E-08    PKT1    = -8.622526E-14   KT2     = -0.04037788     
+LKT2    = 1.843258E-09    WKT2    = 2.97845E-08     PKT2    = -3.945926E-14   
+AT      = 21995.49        LAT     = -0.002308781    WAT     = 0.0004299513    
+PAT     = -4.974535E-10   UTE     = -2.126477       LUTE    = -4.580592E-07   
+WUTE    = 1.000684E-06    PUTE    = -1.73693E-13    UA1     = 1.352192E-10    
+LUA1    = -2.917594E-15   WUA1    = 2.593646E-15    PUA1    = 1.681139E-22    
+UB1     = -1.722684E-18   LUB1    = 3.583362E-24    WUB1    = -1.313493E-24   
+PUB1    = -1.137493E-30   UC1     = 1.546289E-11    LUC1    = 7.41811E-18     
+WUC1    = -3.63894E-18    PUC1    = 1.873742E-23    KT1L    = 0               
+PRT     = 0               CJ      = cjn             PB      = 0.6944474       
+MJ      = 0.3075043       CJSW    = cjswn           PBSW    = 0.6944474       
+MJSW    = 0.1929617       CJSWG   = cjswgn          PBSWG   = 0.6944474       
+MJSWG   = 0.1929617       CGDO    = cgon            CGSO    = cgon           
+CTA     = 0.001047197     CTP     = 0.000566277     PTA     = 0.001820458     
+PTP     = 0.001820458     JS      = 1E-06           JSW     = 2E-11           
+N       = 1               XTI     = 3               CGBO    = 1E-13           
+CAPMOD  = 0               NQSMOD  = 0               XPART   = 1               
+CALCACM = 1               SFVTFLAG= 0               VFBFLAG = 1
+CF      = 0               TLEV    = 1               TLEVC   = 1              
+NLEV    = 3               AF      = 1.1             KF      = 3.5E-24  ) 
*
*
*
.MODEL N.2             NMOS   (                    LMIN    = '7.97E-07-dxl'  
+LMAX    = '1.197E-06-dxl' WMIN    = '1.195E-06-dxw' WMAX    = '1.9995E-05-dxw'
+LEVEL   = 49              TNOM    = 25              VERSION = 3.1             
+ACM     = 12              LDIF    = 1.2E-07         HDIF    = hdifn           
+RSH     = 3.5             RD      = 0               RS      = 0               
+TOX     = toxn            XJ      = 1E-07           NCH     = 2.3579E+17      
+LLN     = 1               LWN     = 1               WLN     = 1               
+WWN     = 1               LINT    = 4E-08           LL      = 0               
+LW      = 0               LWL     = 0               WINT    = 4E-08           
+WL      = 0               WW      = 0               WWL     = 0               
+MOBMOD  = 1               BINUNIT = 2               XL      = '4E-08+dxl'     
+XW      = '1.5E-07+dxw'   DWG     = 0               DWB     = 0               
+VTH0    = 'dvtn+0.576256' LVTH0   = 2.514042E-08    WVTH0   = -4.202987E-08   
+PVTH0   = 5.113948E-15    K1      = 0.5164742       LK1     = 1.6232E-08      
+WK1     = -5.634458E-08   PK1     = 2.873453E-14    K2      = 0.02536446      
+LK2     = -4.583989E-09   WK2     = 1.562382E-08    PK2     = -7.844064E-15   
+K3      = 0               DVT0    = 0               DVT1    = 0               
+DVT2    = 0               DVT0W   = 0               DVT1W   = 0               
+DVT2W   = 0               NLX     = 0               W0      = 0               
+K3B     = 0               VSAT    = 474572          LVSAT   = -0.2639007      
+WVSAT   = -0.02525971     PVSAT   = 4.563911E-09    UA      = 0               
+UB      = 3.288819E-18    LUB     = -5.646822E-25   WUB     = -2.361292E-24   
+PUB     = 6.557574E-31    UC      = 1.726304E-10    LUC     = -3.68414E-17    
+WUC     = -1.952483E-16   PUC     = 5.651767E-23    RDSW    = 750             
+PRWB    = 0               PRWG    = 0               WR      = 1               
+U0      = 0.05197671      LU0     = -3.162722E-09   WU0     = -2.055012E-08   
+PU0     = 3.712301E-15    A0      = 1.417161        LA0     = -5.039583E-07   
+WA0     = 4.545693E-07    PA0     = -2.800293E-13   KETA    = 0.02458077      
+LKETA   = -1.406563E-08   WKETA   = -1.026654E-08   PKETA   = 9.160596E-15    
+A1      = 0               A2      = 0.99            AGS     = 0.09343582      
+LAGS    = -8.587092E-08   WAGS    = -1.434963E-07   PAGS    = 1.086267E-13    
+B0      = 0               B1      = 0               VOFF    = -0.1838554      
+LVOFF   = 8.467239E-08    WVOFF   = 1.060771E-07    PVOFF   = -1.071106E-13   
+NFACTOR = -0.03400384     LNFACTOR= 9.601509E-07    WNFACTOR= 1.067981E-06    
+PNFACTOR= -1.177285E-12   CIT     = 0.0004913237    LCIT    = -3.844538E-10   
+WCIT    = -3.322403E-10   PCIT    = 5.211393E-16    CDSC    = 0               
+CDSCB   = 0               CDSCD   = 0               ETA0    = 0.0001217044    
+LETA0   = 6.008551E-10    WETA0   = 1.009042E-09    PETA0   = -1.083404E-15   
+ETAB    = -6.365367E-06   LETAB   = 7.364722E-12    WETAB   = 1.277528E-10    
+PETAB   = -1.4781E-16     DSUB    = 0               PCLM    = 0.7659091       
+LPCLM   = 3.671174E-08    WPCLM   = -3.227764E-07   PPCLM   = 2.30547E-13     
+PDIBLC1 = 1E-05           PDIBLC2 = -0.001092461    LPDIBLC2= 4.174309E-09    
+WPDIBLC2= -5.845379E-10   PPDIBLC2= 7.989786E-17    PDIBLCB = -0.1139965      
+LPDIBLCB= 2.924316E-07    WPDIBLCB= 3.197285E-07    PPDIBLCB= -3.699259E-13   
+DROUT   = 0               PSCBE1  = 4.683486E+08    LPSCBE1 = -44.56396       
+WPSCBE1 = -212.0167       PPSCBE1 = 0.0001428045    PSCBE2  = 3.714656E-06    
+LPSCBE2 = 9.103205E-13    WPSCBE2 = -8.147431E-13   PPSCBE2 = -2.151535E-18   
+PVAG    = 0               DELTA   = 0.01            ALPHA0  = 2.2E-06   
+BETA0   = 20              KT1     = -0.1562424      LKT1    = -1.548923E-07   
+WKT1    = -4.077244E-07   PKT1    = 4.279995E-13    KT2     = -0.03425014     
+LKT2    = -5.246532E-09   WKT2    = -7.25403E-08    PKT2    = 7.893054E-14    
+AT      = 19172.5         LAT     = 0.0009574139    WAT     = 0.01660787      
+PAT     = -1.92153E-08    UTE     = -2.707706       LUTE    = 2.144223E-07    
+WUTE    = 1.151636E-06    PUTE    = -3.483443E-13   UA1     = -3.224284E-09   
+LUA1    = 9.693514E-16    WUA1    = 3.732786E-15    PUA1    = -1.149871E-21   
+UB1     = 2.323169E-18    LUB1    = -1.09769E-24    WUB1    = -3.397445E-24   
+PUB1    = 1.273639E-30    UC1     = 2.823518E-11    LUC1    = -7.359427E-18   
+WUC1    = -2.014884E-17   PUC1    = 3.783937E-23    KT1L    = 0               
+PRT     = 0               CJ      = cjn             PB      = 0.6944474       
+MJ      = 0.3075043       CJSW    = cjswn           PBSW    = 0.6944474       
+MJSW    = 0.1929617       CJSWG   = cjswgn          PBSWG   = 0.6944474       
+MJSWG   = 0.1929617       CGDO    = cgon            CGSO    = cgon           
+CTA     = 0.001047197     CTP     = 0.000566277     PTA     = 0.001820458     
+PTP     = 0.001820458     JS      = 1E-06           JSW     = 2E-11           
+N       = 1               XTI     = 3               CGBO    = 1E-13           
+CAPMOD  = 0               NQSMOD  = 0               XPART   = 1               
+CALCACM = 1               SFVTFLAG= 0               VFBFLAG = 1
+CF      = 0               TLEV    = 1               TLEVC   = 1               
+NLEV    = 3               AF      = 1.1             KF      = 3.5E-24  )
*
*
*
.MODEL N.3             NMOS   (                    LMIN    = 3.5E-07         
+LMAX    = '7.97E-07-dxl'  WMIN    = '1.195E-06-dxw' WMAX    = '1.9995E-05-dxw'
+LEVEL   = 49              TNOM    = 25              VERSION = 3.1             
+ACM     = 12              LDIF    = 1.2E-07         HDIF    = hdifn           
+RSH     = 3.5             RD      = 0               RS      = 0               
+TOX     = toxn            XJ      = 1E-07           NCH     = 2.3579E+17      
+LLN     = 1               LWN     = 1               WLN     = 1               
+WWN     = 1               LINT    = 4E-08           LL      = 0               
+LW      = 0               LWL     = 0               WINT    = 4E-08           
+WL      = 0               WW      = 0               WWL     = 0               
+MOBMOD  = 1               BINUNIT = 2               XL      = '4E-08+dxl'     
+XW      = '1.5E-07+dxw'   DWG     = 0               DWB     = 0               
+VTH0    = 'dvtn+0.612366' LVTH0   = -2.195033E-09   WVTH0   = -4.942107E-08   
+PVTH0   = 1.070908E-14    K1      = 0.5217116       LK1     = 1.226722E-08    
+WK1     = 1.62416E-08     PK1     = -2.621321E-14   K2      = 0.04534624      
+LK2     = -1.97102E-08    WK2     = -1.964804E-09   PK2     = 5.470523E-15    
+K3      = 0               DVT0    = 0               DVT1    = 0               
+DVT2    = 0               DVT0W   = 0               DVT1W   = 0               
+DVT2W   = 0               NLX     = 0               W0      = 0               
+K3B     = 0               VSAT    = 146269.1        LVSAT   = -0.01537539     
+WVSAT   = -0.03674294     PVSAT   = 1.325671E-08    UA      = 0               
+UB      = 2.953951E-18    LUB     = -3.111866E-25   WUB     = -2.25456E-24    
+PUB     = 5.749616E-31    UC      = 1.660162E-10    LUC     = -3.183445E-17   
+WUC     = -1.799815E-16   PUC     = 4.496069E-23    RDSW    = 750             
+PRWB    = 0               PRWG    = 0               WR      = 1               
+U0      = 0.04862441      LU0     = -6.250294E-10   WU0     = -1.535462E-08   
+PU0     = -2.206897E-16   A0      = 0.7345476       LA0     = 1.277984E-08    
+WA0     = -2.539017E-07   PA0     = 2.562833E-13    KETA    = -0.006361756    
+LKETA   = 9.357865E-09    WKETA   = -1.298799E-08   PKETA   = 1.122074E-14    
+A1      = 0               A2      = 0.99            AGS     = -0.02           
+B0      = 0               B1      = 0               VOFF    = -0.07163895     
+LVOFF   = -2.754624E-10   WVOFF   = -6.143033E-08   PVOFF   = 1.969253E-14    
+NFACTOR = 1.373278        LNFACTOR= -1.051615E-07   WNFACTOR= -4.756794E-07   
+PNFACTOR= -8.734273E-15   CIT     = -9.027528E-05   LCIT    = 5.581667E-11    
+WCIT    = 2.888431E-10    PCIT    = 5.097918E-17    CDSC    = 0               
+CDSCB   = 0               CDSCD   = 0               ETA0    = -0.0003502614   
+LETA0   = 9.581334E-10    WETA0   = -1.242287E-09   PETA0   = 6.208521E-16    
+ETAB    = 0.0009891934    LETAB   = -7.462733E-10   WETAB   = -7.833016E-10   
+PETAB   = 5.418582E-16    DSUB    = 0               PCLM    = 0.7913126       
+LPCLM   = 1.748126E-08    WPCLM   = -2.438961E-08   PPCLM   = 4.668212E-15    
+PDIBLC1 = 1E-05           PDIBLC2 = 0.0001653717    LPDIBLC2= 3.222129E-09    
+WPDIBLC2= -4.028251E-11   PPDIBLC2= -3.321032E-16   PDIBLCB = 0.4361967       
+LPDIBLCB= -1.240647E-07   WPDIBLCB= -2.777069E-07   PPDIBLCB= 8.23327E-14     
+DROUT   = 0               PSCBE1  = 3.496988E+08    LPSCBE1 = 45.25388        
+WPSCBE1 = -43.44224       PPSCBE1 = 1.519363E-05    PSCBE2  = 4.063321E-06    
+LPSCBE2 = 6.463813E-13    WPSCBE2 = -5.436765E-12   PPSCBE2 = 1.347336E-18    
+PVAG    = 0               DELTA   = 0.01            ALPHA0  = 2.2E-06     
+BETA0   = 20              KT1     = -0.4461604      LKT1    = 6.457565E-08    
+WKT1    = 2.40358E-07     PKT1    = -6.259898E-14   KT2     = -0.05914541     
+LKT2    = 1.359918E-08    WKT2    = 6.092503E-08    PKT2    = -2.210271E-14   
+AT      = 20237.79        LAT     = 0.0001509916    WAT     = -0.01024933     
+PAT     = 1.115594E-09    UTE     = -2.519309       LUTE    = 7.180611E-08    
+WUTE    = 1.189467E-06    PUTE    = -3.769821E-13   UA1     = -2.509661E-09   
+LUA1    = 4.28381E-16     WUA1    = 4.42808E-15     PUA1    = -1.676208E-21   
+UB1     = 1.511838E-18    LUB1    = -4.83512E-25    WUB1    = -3.97729E-24    
+PUB1    = 1.712581E-30    UC1     = 1.833753E-11    LUC1    = 1.330973E-19    
+WUC1    = 5.981525E-18    PUC1    = 1.805868E-23    KT1L    = 0               
+PRT     = 0               CJ      = cjn             PB      = 0.6944474       
+MJ      = 0.3075043       CJSW    = cjswn           PBSW    = 0.6944474       
+MJSW    = 0.1929617       CJSWG   = cjswgn          PBSWG   = 0.6944474       
+MJSWG   = 0.1929617       CGDO    = cgon            CGSO    = cgon           
+CTA     = 0.001047197     CTP     = 0.000566277     PTA     = 0.001820458     
+PTP     = 0.001820458     JS      = 1E-06           JSW     = 2E-11           
+N       = 1               XTI     = 3               CGBO    = 1E-13           
+CAPMOD  = 0               NQSMOD  = 0               XPART   = 1               
+CALCACM = 1               SFVTFLAG= 0               VFBFLAG = 1
+CF      = 0               TLEV    = 1               TLEVC   = 1              
+NLEV    = 3               AF      = 1.1             KF      = 3.5E-24  )
*
*
*
.MODEL N.4             NMOS   (                    LMIN    = '1.197E-06-dxl' 
+LMAX    = 2.001E-05       WMIN    = '7.95E-07-dxw'  WMAX    = '1.195E-06-dxw' 
+LEVEL   = 49              TNOM    = 25              VERSION = 3.1             
+ACM     = 12              LDIF    = 1.2E-07         HDIF    = hdifn           
+RSH     = 3.5             RD      = 0               RS      = 0               
+TOX     = toxn            XJ      = 1E-07           NCH     = 2.3579E+17      
+LLN     = 1               LWN     = 1               WLN     = 1               
+WWN     = 1               LINT    = 4E-08           LL      = 0               
+LW      = 0               LWL     = 0               WINT    = 4E-08           
+WL      = 0               WW      = 0               WWL     = 0               
+MOBMOD  = 1               BINUNIT = 2               XL      = '4E-08+dxl'     
+XW      = '1.5E-07+dxw'   DWG     = 0               DWB     = 0               
+VTH0    = 'dvtn+0.571982' LVTH0   = -6.914564E-09   WVTH0   = -5.596558E-09   
+PVTH0   = 9.765864E-15    K1      = 0.5200408       LK1     = -1.94431E-08    
+WK1     = -1.964819E-08   PK1     = 2.618565E-14    K2      = 0.02640612      
+LK2     = 8.159431E-09    WK2     = 6.717265E-09    PK2     = -1.518418E-14   
+K3      = 0               DVT0    = 0               DVT1    = 0               
+DVT2    = 0               DVT0W   = 0               DVT1W   = 0               
+DVT2W   = 0               NLX     = 0               W0      = 0               
+K3B     = 0               VSAT    = 245128.2        LVSAT   = 0.09724198      
+WVSAT   = 0.007748332     PVSAT   = -1.546567E-07   UA      = -7.022495E-10   
+LUA     = 8.125026E-16    WUA     = 2.817903E-16    PUA     = -3.260313E-22   
+UB      = 2.24264E-18     LUB     = -6.327575E-25   WUB     = -4.62269E-25    
+PUB     = 7.589682E-32    UC      = 3.872708E-11    LUC     = 1.783356E-17    
+WUC     = -1.768524E-17   PUC     = -2.210508E-23   RDSW    = 750             
+PRWB    = 0               PRWG    = 0               WR      = 1               
+U0      = 0.03728365      LU0     = -2.869267E-09   WU0     = -4.635589E-09   
+PU0     = 6.432805E-15    A0      = 0.5175889       LA0     = 1.025001E-06    
+WA0     = 1.107304E-07    PA0     = -4.997238E-13   KETA    = 0.01167333      
+LKETA   = -2.834473E-09   WKETA   = -5.999603E-10   PKETA   = 2.660353E-15    
+A1      = 0               A2      = 0.99            AGS     = 0.02246131      
+LAGS    = -4.912773E-08   B0      = 0               B1      = 0               
+VOFF    = -0.1212307      LVOFF   = 2.456386E-08    NFACTOR = 0.8713054       
+LNFACTOR= -1.882175E-08   WNFACTOR= -6.635555E-08   PNFACTOR= 4.852752E-14    
+CIT     = 0.0002544068    LCIT    = -4.382927E-11   WCIT    = 5.213999E-11    
+PCIT    = -7.725936E-18   CDSC    = 0               CDSCB   = 0               
+CDSCD   = 0               ETA0    = -8.590369E-05   LETA0   = 1.005656E-09    
+WETA0   = 1.623542E-10    PETA0   = -3.120026E-16   ETAB    = -3.053082E-05   
+LETAB   = 1.777605E-10    WETAB   = 3.862149E-11    PETAB   = -2.24867E-16    
+DSUB    = 0               PCLM    = 0.1692336       LPCLM   = 6.140966E-07    
+PDIBLC1 = 1E-05           PDIBLC2 = -0.0003509811   LPDIBLC2= 1.421783E-09    
+WPDIBLC2= 3.008671E-10    PPDIBLC2= 1.452196E-15    PDIBLCB = 0.1387533       
+DROUT   = 0               PSCBE1  = 3.510958E+08    LPSCBE1 = -126.0187       
+WPSCBE1 = 78.20322        PPSCBE1 = 8.167206E-05    PSCBE2  = -8.916478E-05   
+LPSCBE2 = 1.00639E-10     WPSCBE2 = 1.634629E-10    PPSCBE2 = -1.824388E-16   
+PVAG    = 0               DELTA   = 0.01            ALPHA0  = 2.2E-06         
+BETA0   = 20              KT1     = -0.2903293      LKT1    = -1.294054E-07   
+WKT1    = 8.1231E-09      PKT1    = 1.108733E-13    KT2     = -0.01521824     
+LKT2    = -6.249304E-08   WKT2    = -2.042433E-09   PKT2    = 4.192616E-14    
+AT      = 27385.61        LAT     = -0.008545156    WAT     = -0.006388556    
+PAT     = 7.391559E-09    UTE     = -1.448627       LUTE    = -8.897312E-07   
+WUTE    = 1.432031E-07    PUTE    = 3.723721E-13    UA1     = 2.297519E-09    
+LUA1    = -3.4174E-15     WUA1    = -1.416624E-16   PUA1    = 8.003683E-22    
+UB1     = -3.05281E-18    LUB1    = 2.039652E-24    WUB1    = 3.691152E-25    
+PUB1    = 8.153008E-31    UC1     = -3.353614E-13   LUC1    = 5.56955E-17     
+WUC1    = 1.634585E-17    PUC1    = -4.233348E-23   KT1L    = 0               
+PRT     = 0               CJ      = cjn             PB      = 0.6944474       
+MJ      = 0.3075043       CJSW    = cjswn           PBSW    = 0.6944474       
+MJSW    = 0.1929617       CJSWG   = cjswgn          PBSWG   = 0.6944474       
+MJSWG   = 0.1929617       CGDO    = cgon            CGSO    = cgon           
+CTA     = 0.001047197     CTP     = 0.000566277     PTA     = 0.001820458     
+PTP     = 0.001820458     JS      = 1E-06           JSW     = 2E-11           
+N       = 1               XTI     = 3               CGBO    = 1E-13           
+CAPMOD  = 0               NQSMOD  = 0               XPART   = 1               
+CALCACM = 1               SFVTFLAG= 0               VFBFLAG = 1
+CF      = 0               TLEV    = 1               TLEVC   = 1              
+NLEV    = 3               AF      = 1.1             KF      = 3.5E-24  )
*
*
*
.MODEL N.5             NMOS   (                    LMIN    = '7.97E-07-dxl'  
+LMAX    = '1.197E-06-dxl' WMIN    = '7.95E-07-dxw'  WMAX    = '1.195E-06-dxw' 
+LEVEL   = 49              TNOM    = 25              VERSION = 3.1             
+ACM     = 12              LDIF    = 1.2E-07         HDIF    = hdifn           
+RSH     = 3.5             RD      = 0               RS      = 0               
+TOX     = toxn            XJ      = 1E-07           NCH     = 2.3579E+17      
+LLN     = 1               LWN     = 1               WLN     = 1               
+WWN     = 1               LINT    = 4E-08           LL      = 0               
+LW      = 0               LWL     = 0               WINT    = 4E-08           
+WL      = 0               WW      = 0               WWL     = 0               
+MOBMOD  = 1               BINUNIT = 2               XL      = '4E-08+dxl'     
+XW      = '1.5E-07+dxw'   DWG     = 0               DWB     = 0               
+VTH0    = 'dvtn+0.538233' LVTH0   = 3.213295E-08    WVTH0   = 6.069357E-09    
+PVTH0   = -3.731603E-15   K1      = 0.4151626       LK1     = 1.01901E-07     
+WK1     = 7.181462E-08    PK1     = -7.96368E-14    K2      = 0.07100685      
+LK2     = -4.344361E-08   WK2     = -4.211381E-08   PK2     = 4.131336E-14    
+K3      = 0               DVT0    = 0               DVT1    = 0               
+DVT2    = 0               DVT0W   = 0               DVT1W   = 0               
+DVT2W   = 0               NLX     = 0               W0      = 0               
+K3B     = 0               VSAT    = 751694.6        LVSAT   = -0.4888554      
+WVSAT   = -0.3758198      PVSAT   = 2.891316E-07    UA      = 0               
+UB      = 1.454434E-18    LUB     = 2.791962E-25    WUB     = -4.079479E-26   
+PUB     = -4.117488E-31   UC      = 3.686035E-11    LUC     = 1.999337E-17    
+WUC     = -2.349923E-17   PUC     = -1.53783E-23    RDSW    = 750             
+PRWB    = 0               PRWG    = 0               WR      = 1               
+U0      = 0.03878254      LU0     = -4.603489E-09   WU0     = -3.8595E-09     
+PU0     = 5.534871E-15    A0      = 2.805783        LA0     = -1.62244E-06    
+WA0     = -1.302039E-06   PA0     = 1.13485E-12     KETA    = 0.03237186      
+LKETA   = -2.678267E-08   WKETA   = -2.012226E-08   PKETA   = 2.524765E-14    
+A1      = 0               A2      = 0.99            AGS     = -0.02           
+B0      = 0               B1      = 0               VOFF    = -0.1            
+NFACTOR = 0.7536095       LNFACTOR= 1.173525E-07    WNFACTOR= 7.165022E-08    
+PNFACTOR= -1.111452E-13   CIT     = 0.0002858408    LCIT    = -8.019845E-11   
+WCIT    = -7.23045E-11    PCIT    = 1.362564E-16    CDSC    = 0               
+CDSCB   = 0               CDSCD   = 0               ETA0    = 0.003386452     
+LETA0   = -3.011859E-09   WETA0   = -3.120863E-09   PETA0   = 3.48668E-15     
+ETAB    = 0.0006553425    LETAB   = -6.157948E-10   WETAB   = -7.093076E-10   
+PETAB   = 6.404868E-16    DSUB    = 0               PCLM    = 1.039858        
+LPCLM   = -3.932159E-07   WPCLM   = -6.693219E-07   PPCLM   = 7.744055E-13    
+PDIBLC1 = 1E-05           PDIBLC2 = -0.004204511    LPDIBLC2= 5.880316E-09    
+WPDIBLC2= 3.352205E-09    PPDIBLC2= -2.078201E-15   PDIBLCB = 0.1387533       
+DROUT   = 0               PSCBE1  = 1.062741E+08    LPSCBE1 = 157.24          
+WPSCBE1 = 246.0075        PPSCBE1 = -0.0001124775   PSCBE2  = -5.372212E-06   
+LPSCBE2 = 3.691067E-12    WPSCBE2 = 1.068015E-11    PPSCBE2 = -5.669179E-18   
+PVAG    = 0               DELTA   = 0.01            ALPHA0  = 2.2E-06     
+BETA0   = 20              KT1     = -0.821752       LKT1    = 4.854506E-07    
+WKT1    = 4.341452E-07    PKT1    = -3.820343E-13   KT2     = -0.2086612      
+LKT2    = 1.613204E-07    WKT2    = 1.480897E-07    PKT2    = -1.317767E-13   
+AT      = 83867.14        LAT     = -0.07389429     WAT     = -0.06523086     
+PAT     = 7.547211E-08    UTE     = -2.091956       LUTE    = -1.453992E-07   
+WUTE    = 3.727124E-07    PUTE    = 1.068298E-13    UA1     = -5.692394E-10   
+LUA1    = -1.005611E-16   WUA1    = 3.741545E-16    PUA1    = 2.035683E-22    
+UB1     = -6.510533E-19   LUB1    = -7.3918E-25     WUB1    = 3.649467E-25    
+PUB1    = 8.201238E-31    UC1     = 3.935959E-11    LUC1    = 9.768458E-18    
+WUC1    = -3.422121E-17   PUC1    = 1.61726E-23     KT1L    = 0               
+PRT     = 0               CJ      = cjn             PB      = 0.6944474       
+MJ      = 0.3075043       CJSW    = cjswn           PBSW    = 0.6944474       
+MJSW    = 0.1929617       CJSWG   = cjswgn          PBSWG   = 0.6944474       
+MJSWG   = 0.1929617       CGDO    = cgon            CGSO    = cgon           
+CTA     = 0.001047197     CTP     = 0.000566277     PTA     = 0.001820458     
+PTP     = 0.001820458     JS      = 1E-06           JSW     = 2E-11           
+N       = 1               XTI     = 3               CGBO    = 1E-13           
+CAPMOD  = 0               NQSMOD  = 0               XPART   = 1               
+CALCACM = 1               SFVTFLAG= 0               VFBFLAG = 1
+CF      = 0               TLEV    = 1               TLEVC   = 1              
+NLEV    = 3               AF      = 1.1             KF      = 3.5E-24  )
*
*
*
.MODEL N.6             NMOS   (                    LMIN    = 3.5E-07         
+LMAX    = '7.97E-07-dxl'  WMIN    = '7.95E-07-dxw'  WMAX    = '1.195E-06-dxw' 
+LEVEL   = 49              TNOM    = 25              VERSION = 3.1             
+ACM     = 12              LDIF    = 1.2E-07         HDIF    = hdifn           
+RSH     = 3.5             RD      = 0               RS      = 0               
+TOX     = toxn            XJ      = 1E-07           NCH     = 2.3579E+17      
+LLN     = 1               LWN     = 1               WLN     = 1               
+WWN     = 1               LINT    = 4E-08           LL      = 0               
+LW      = 0               LWL     = 0               WINT    = 4E-08           
+WL      = 0               WW      = 0               WWL     = 0               
+MOBMOD  = 1               BINUNIT = 2               XL      = '4E-08+dxl'     
+XW      = '1.5E-07+dxw'   DWG     = 0               DWB     = 0               
+VTH0    = 'dvtn+0.581882' LVTH0   = -9.092082E-10   WVTH0   = -1.085813E-08   
+PVTH0   = 9.08251E-15     K1      = 0.5856118       LK1     = -2.712899E-08   
+WK1     = -6.459202E-08   PK1     = 2.362301E-14    K2      = 0.03457641      
+LK2     = -1.586577E-08   WK2     = 1.165903E-08    PK2     = 6.073254E-16    
+K3      = 0               DVT0    = 0               DVT1    = 0               
+DVT2    = 0               DVT0W   = 0               DVT1W   = 0               
+DVT2W   = 0               NLX     = 0               W0      = 0               
+K3B     = 0               VSAT    = 119025.1        LVSAT   = -0.009924537    
+WVSAT   = -0.002279183    PVSAT   = 6.361378E-09    UA      = -1.414697E-09   
+LUA     = 1.070926E-15    WUA     = 1.789592E-15    PUA     = -1.354721E-21   
+UB      = 2.048355E-18    LUB     = -1.704018E-25   WUB     = -1.108982E-24   
+PUB     = 3.968689E-31    UC      = 2.132472E-11    LUC     = 3.175384E-17    
+WUC     = 3.0532E-18      PUC     = -3.547849E-23   RDSW    = 750             
+PRWB    = 0               PRWG    = 0               WR      = 1               
+U0      = 0.02506424      LU0     = 5.781268E-09    WU0     = 1.444899E-08    
+PU0     = -8.324657E-15   A0      = 0.2963715       LA0     = 2.77185E-07     
+WA0     = 3.003911E-07    PA0     = -7.818931E-14   KETA    = -0.05706036     
+LKETA   = 4.091752E-08    WKETA   = 5.114574E-08    PKETA   = -2.870222E-14   
+A1      = 0               A2      = 0.99            AGS     = -0.02           
+B0      = 0               B1      = 0               VOFF    = -0.1416441      
+LVOFF   = 3.152457E-08    WVOFF   = 2.712617E-08    PVOFF   = -2.053451E-14   
+NFACTOR = 1.158405        LNFACTOR= -1.89078E-07    WNFACTOR= -2.038653E-07   
+PNFACTOR= 9.742009E-14    CIT     = 0.000142597     LCIT    = 2.823712E-11    
+WCIT    = -5.740386E-12   PCIT    = 8.586731E-17    CDSC    = 0               
+CDSCB   = 0               CDSCD   = 0               ETA0    = -0.006826099    
+LETA0   = 4.719042E-09    WETA0   = 6.949648E-09    PETA0   = -4.136698E-15   
+ETAB    = 0.0002012202    LETAB   = -2.720243E-10   WETAB   = 2.134844E-10    
+PETAB   = -5.806666E-17   DSUB    = 0               PCLM    = 0.7902654       
+LPCLM   = -2.042742E-07   WPCLM   = -2.306488E-08   PPCLM   = 2.851889E-13    
+PDIBLC1 = 1E-05           PDIBLC2 = 0.005555971     LPDIBLC2= -1.508371E-09   
+WPDIBLC2= -6.859392E-09   PPDIBLC2= 5.65198E-15     PDIBLCB = 0.1326331       
+LPDIBLCB= 4.633002E-09    WPDIBLCB= 1.06301E-07     PPDIBLCB= -8.046988E-14   
+DROUT   = 0               PSCBE1  = 6.472126E+07    LPSCBE1 = 188.6956        
+WPSCBE1 = 317.0544        PPSCBE1 = -0.0001662601   PSCBE2  = -1.062123E-05   
+LPSCBE2 = 7.664572E-12    WPSCBE2 = 1.313919E-11    PPSCBE2 = -7.530675E-18   
+PVAG    = 0               DELTA   = 0.01            ALPHA0  = 2.2E-06     
+BETA0   = 20              KT1     = -0.08126103     LKT1    = -7.510103E-08   
+WKT1    = -2.212396E-07   PKT1    = 1.14092E-13     KT2     = 0.01395588      
+LKT2    = -7.20068E-09    WKT2    = -3.15481E-08    PKT2    = 4.209116E-15    
+AT      = -7481.743       LAT     = -0.004743181    WAT     = 0.02481588      
+PAT     = 7.306722E-09    UTE     = -0.807851       LUTE    = -1.117467E-06   
+WUTE    = -9.755286E-07   PUTE    = 1.127448E-12    UA1     = 5.440724E-09    
+LUA1    = -4.650104E-15   WUA1    = -5.629156E-15   PUA1    = 4.748075E-21    
+UB1     = -7.763102E-18   LUB1    = 4.644643E-24    WUB1    = 7.755512E-24    
+PUB1    = -4.774535E-30   UC1     = 2.14897E-11     LUC1    = 2.329596E-17    
+WUC1    = 1.994026E-18    PUC1    = -1.124234E-23   KT1L    = 0               
+PRT     = 0               CJ      = cjn             PB      = 0.6944474       
+MJ      = 0.3075043       CJSW    = cjswn           PBSW    = 0.6944474       
+MJSW    = 0.1929617       CJSWG   = cjswgn          PBSWG   = 0.6944474       
+MJSWG   = 0.1929617       CGDO    = cgon            CGSO    = cgon           
+CTA     = 0.001047197     CTP     = 0.000566277     PTA     = 0.001820458     
+PTP     = 0.001820458     JS      = 1E-06           JSW     = 2E-11           
+N       = 1               XTI     = 3               CGBO    = 1E-13           
+CAPMOD  = 0               NQSMOD  = 0               XPART   = 1               
+CALCACM = 1               SFVTFLAG= 0               VFBFLAG = 1
+CF      = 0               TLEV    = 1               TLEVC   = 1              
+NLEV    = 3               AF      = 1.1             KF      = 3.5E-24  )
*
*
*
.MODEL N.7             NMOS   (                    LMIN    = '1.197E-06-dxl' 
+LMAX    = 2.001E-05       WMIN    = 4E-07           WMAX    = '7.95E-07-dxw'  
+LEVEL   = 49              TNOM    = 25              VERSION = 3.1             
+ACM     = 12              LDIF    = 1.2E-07         HDIF    = hdifn           
+RSH     = 3.5             RD      = 0               RS      = 0               
+TOX     = toxn            XJ      = 1E-07           NCH     = 2.3579E+17      
+LLN     = 1               LWN     = 1               WLN     = 1               
+WWN     = 1               LINT    = 4E-08           LL      = 0               
+LW      = 0               LWL     = 0               WINT    = 4E-08           
+WL      = 0               WW      = 0               WWL     = 0               
+MOBMOD  = 1               BINUNIT = 2               XL      = '4E-08+dxl'     
+XW      = '1.5E-07+dxw'   DWG     = 0               DWB     = 0               
+VTH0    = 'dvtn+0.601548' LVTH0   = -1.420018E-08   WVTH0   = -3.117096E-08   
+PVTH0   = 1.606793E-14    K1      = 0.5489828       LK1     = 2.140216E-08    
+WK1     = -4.4683E-08     PK1     = -9.145492E-15   K2      = 0.01683032      
+LK2     = -1.502104E-08   WK2     = 1.500032E-08    PK2     = 4.866925E-15    
+K3      = 0               DVT0    = 0               DVT1    = 0               
+DVT2    = 0               DVT0W   = 0               DVT1W   = 0               
+DVT2W   = 0               NLX     = 0               W0      = 0               
+K3B     = 0               VSAT    = 251867.9        LVSAT   = -0.03728397     
+WVSAT   = 0.001918421     PVSAT   = -3.829173E-08   UA      = -8.141389E-10   
+LUA     = 9.419587E-16    WUA     = 3.785746E-16    PUA     = -4.380108E-22   
+UB      = 2.138028E-18    LUB     = -6.730573E-25   WUB     = -3.717801E-25   
+PUB     = 1.107562E-31    UC      = 2.070568E-11    LUC     = 1.782067E-17    
+WUC     = -2.09673E-18    PUC     = -2.209394E-23   RDSW    = 750             
+PRWB    = 0               PRWG    = 0               WR      = 1               
+U0      = 0.03098577      LU0     = 5.598194E-09    WU0     = 8.120801E-10    
+PU0     = -8.915489E-16   A0      = 0.558895        LA0     = 5.51956E-07     
+WA0     = 7.500072E-08    PA0     = -9.05398E-14    KETA    = 0.01654126      
+LKETA   = 4.310971E-10    WKETA   = -4.810717E-09   PKETA   = -1.643655E-16   
+A1      = 0               A2      = 0.99            AGS     = 0.02246131      
+LAGS    = -4.912773E-08   B0      = 0               B1      = 0               
+VOFF    = -0.133571       LVOFF   = 3.884161E-08    WVOFF   = 1.067438E-08    
+PVOFF   = -1.235025E-14   NFACTOR = 1.491938        LNFACTOR= -7.725255E-07   
+WNFACTOR= -6.03203E-07    PNFACTOR= 7.004813E-13    CIT     = -0.0006880231   
+LCIT    = 1.056487E-09    WCIT    = 8.673419E-10    PCIT    = -9.594994E-16   
+CDSC    = 0               CDSCB   = 0               CDSCD   = 0               
+ETA0    = 7.050587E-05    LETA0   = 5.980575E-10    WETA0   = 2.705997E-11    
+PETA0   = 4.056988E-17    ETAB    = 2.015653E-05    LETAB   = -4.3476E-10     
+WETAB   = -5.223083E-12   PETAB   = 3.049632E-16    DSUB    = 0               
+PCLM    = 0.1763869       LPCLM   = 4.713191E-07    WPCLM   = -6.187514E-09   
+PPCLM   = 1.235026E-13    PDIBLC1 = 1E-05           PDIBLC2 = 0.000235239     
+LPDIBLC2= 8.00477E-10     WPDIBLC2= -2.06213E-10    PPDIBLC2= 1.989625E-15    
+PDIBLCB = 0.1302587       LPDIBLCB= 1.69553E-07     WPDIBLCB= 7.347864E-09    
+PPDIBLCB= -1.466633E-13   DROUT   = 0               PSCBE1  = 4.230387E+08    
+LPSCBE1 = -59.55318       WPSCBE1 = 15.97266        PPSCBE1 = 2.417935E-05    
+PSCBE2  = 7.643321E-05    LPSCBE2 = -8.721322E-11   WPSCBE2 = 2.022065E-11    
+PPSCBE2 = -1.994661E-17   PVAG    = 0               DELTA   = 0.01            
+ALPHA0  = 2.2E-06         BETA0   = 20              KT1     = -0.2839968      
+LKT1    = -9.79488E-09    WKT1    = 2.645428E-09    PKT1    = 7.410167E-15    
+KT2     = -0.006536828    LKT2    = -3.446636E-08   WKT2    = -9.551853E-09   
+PKT2    = 1.768308E-14    AT      = 8374.999        WAT     = 0.01005563      
+UTE     = -1.233143       LUTE    = -7.322156E-07   WUTE    = -4.319033E-08   
+PUTE    = 2.36121E-13     UA1     = 3.059218E-09    LUA1    = -3.971079E-15   
+WUA1    = -8.005327E-16   PUA1    = 1.279301E-21    UB1     = -3.691174E-18   
+LUB1    = 4.310885E-24    WUB1    = 9.213007E-25    PUB1    = -1.149316E-30   
+UC1     = 2.722772E-11    LUC1    = -3.796761E-18   WUC1    = -7.496219E-18   
+PUC1    = 9.127327E-24    KT1L    = 0               PRT     = 0               
+CJ      = cjn             PB      = 0.6944474       MJ      = 0.3075043       
+CJSW    = cjswn           PBSW    = 0.6944474       MJSW    = 0.1929617       
+CJSWG   = cjswgn          PBSWG   = 0.6944474       MJSWG   = 0.1929617       
+CGDO    = cgon            CGSO    = cgon            CTA     = 0.001047197     
+CTP     = 0.000566277     PTA     = 0.001820458     PTP     = 0.001820458     
+JS      = 1E-06           JSW     = 2E-11           N       = 1               
+XTI     = 3               CGBO    = 1E-13           CAPMOD  = 0               
+NQSMOD  = 0               XPART   = 1               CF      = 0               
+TLEV    = 1               TLEVC   = 1               
+CALCACM = 1               SFVTFLAG= 0               VFBFLAG = 1
+NLEV    = 3               AF      = 1.1             KF      = 3.5E-24  )
*
*
*
.MODEL N.8             NMOS   (                    LMIN    = '7.97E-07-dxl'  
+LMAX    = '1.197E-06-dxl' WMIN    = 4E-07           WMAX    = '7.95E-07-dxw'  
+LEVEL   = 49              TNOM    = 25              VERSION = 3.1             
+ACM     = 12              LDIF    = 1.2E-07         HDIF    = hdifn           
+RSH     = 3.5             RD      = 0               RS      = 0               
+TOX     = toxn            XJ      = 1E-07           NCH     = 2.3579E+17      
+LLN     = 1               LWN     = 1               WLN     = 1               
+WWN     = 1               LINT    = 4E-08           LL      = 0               
+LW      = 0               LWL     = 0               WINT    = 4E-08           
+WL      = 0               WW      = 0               WWL     = 0               
+MOBMOD  = 1               BINUNIT = 2               XL      = '4E-08+dxl'     
+XW      = '1.5E-07+dxw'   DWG     = 0               DWB     = 0               
+VTH0    = 'dvtn+0.580674' LVTH0   = 9.951057E-09    WVTH0   = -3.064184E-08   
+PVTH0   = 1.545573E-14    K1      = 0.5715671       LK1     = -4.727854E-09   
+WK1     = -6.347529E-08   PK1     = 1.259718E-14    K2      = -0.01078891     
+LK2     = 1.693441E-08    WK2     = 2.863953E-08    PK2     = -1.091363E-14   
+K3      = 0               DVT0    = 0               DVT1    = 0               
+DVT2    = 0               DVT0W   = 0               DVT1W   = 0               
+DVT2W   = 0               NLX     = 0               W0      = 0               
+K3B     = 0               VSAT    = 407330.4        LVSAT   = -0.2171541      
+WVSAT   = -0.07794474     PVSAT   = 5.410996E-08    UA      = 0               
+UB      = 1.52471E-18     LUB     = 3.655192E-26    WUB     = -1.015833E-25   
+PUB     = -2.018614E-31   UC      = 4.816369E-12    LUC     = 3.62046E-17     
+WUC     = 4.218808E-18    PUC     = -2.940101E-23   RDSW    = 750             
+PRWB    = 0               PRWG    = 0               WR      = 1               
+U0      = 0.03756405      LU0     = -2.012876E-09   WU0     = -2.805499E-09   
+PU0     = 3.29399E-15     A0      = 1.063419        LA0     = -3.177871E-08   
+WA0     = 2.051062E-07    PA0     = -2.410719E-13   KETA    = 0.01210282      
+LKETA   = 5.566369E-09    WKETA   = -2.589539E-09   PKETA   = -2.734268E-15   
+A1      = 0               A2      = 0.99            AGS     = -0.02           
+B0      = 0               B1      = 0               VOFF    = -0.1            
+NFACTOR = 0.6115897       LNFACTOR= 2.460378E-07    WNFACTOR= 1.944973E-07    
+PNFACTOR= -2.224579E-13   CIT     = 0.0003090673    LCIT    = -9.714655E-11   
+WCIT    = -9.239536E-11   PCIT    = 1.509164E-16    CDSC    = 0               
+CDSCB   = 0               CDSCD   = 0               ETA0    = -0.0001063383   
+LETA0   = 8.026663E-10    WETA0   = -9.960004E-11   PETA0   = 1.871155E-16    
+ETAB    = -0.0012046      LETAB   = 9.822833E-10    WETAB   = 8.995427E-10    
+PETAB   = -7.418507E-16   DSUB    = 0               PCLM    = 0.08539463      
+LPCLM   = 5.765971E-07    WPCLM   = 1.56289E-07     PPCLM   = -6.448273E-14   
+PDIBLC1 = 1E-05           PDIBLC2 = -0.009448797    LPDIBLC2= 1.20049E-08     
+WPDIBLC2= 7.888511E-09    PPDIBLC2= -7.375969E-15   PDIBLCB = 0.276804        
+WPDIBLCB= -1.194139E-07   DROUT   = 0               PSCBE1  = 2.095781E+08    
+LPSCBE1 = 187.4206        WPSCBE1 = 156.6495        PPSCBE1 = -0.0001385837   
+PSCBE2  = -4.125244E-06   LPSCBE2 = 5.992901E-12    WPSCBE2 = 9.601517E-12    
+PPSCBE2 = -7.660265E-18   PVAG    = 0               DELTA   = 0.01            
+ALPHA0  = 2.2E-06         BETA0   = 20              KT1     = -0.3272037      
+LKT1    = 4.019558E-08    WKT1    = 6.360941E-09    PKT1    = 3.111318E-15    
+KT2     = -0.04514819     LKT2    = 1.020698E-08    WKT2    = 6.650931E-09    
+PKT2    = -1.063542E-15   AT      = -37929.79       LAT     = 0.05357462      
+WAT     = 0.04012348      PAT     = -3.47885E-08    UTE     = -2.213039       
+LUTE    = 4.015241E-07    WUTE    = 4.77449E-07     PUTE    = -3.662587E-13   
+UA1     = -8.827322E-10   LUA1    = 5.897573E-16    WUA1    = 6.453257E-16    
+PUA1    = -3.935571E-22   UB1     = -3.684595E-19   LUB1    = 4.665043E-25    
+WUB1    = 1.205029E-25    PUB1    = -2.22793E-31    UC1     = 4.688548E-11    
+LUC1    = -2.654079E-17   WUC1    = -4.07311E-17    PUC1    = 4.758009E-23    
+KT1L    = 0               PRT     = 0               CJ      = cjn             
+PB      = 0.6944474       MJ      = 0.3075043       CJSW    = cjswn           
+PBSW    = 0.6944474       MJSW    = 0.1929617       CJSWG   = cjswgn          
+PBSWG   = 0.6944474       MJSWG   = 0.1929617       CGDO    = cgon           
+CGSO    = cgon            CTA     = 0.001047197     CTP     = 0.000566277     
+PTA     = 0.001820458     PTP     = 0.001820458     JS      = 1E-06           
+JSW     = 2E-11           N       = 1               XTI     = 3               
+CGBO    = 1E-13           CAPMOD  = 0               NQSMOD  = 0               
+XPART   = 1               CF      = 0               TLEV    = 1               
+TLEVC   = 1              
+CALCACM = 1               SFVTFLAG= 0               VFBFLAG = 1
+NLEV    = 3               AF      = 1.1             KF      = 3.5E-24  )
*
*
*
.MODEL N.9             NMOS   (                    LMIN    = 3.5E-07         
+LMAX    = '7.97E-07-dxl'  WMIN    = 4E-07           WMAX    = '7.95E-07-dxw'  
+LEVEL   = 49              TNOM    = 25              VERSION = 3.1             
+ACM     = 12              LDIF    = 1.2E-07         HDIF    = hdifn           
+RSH     = 3.5             RD      = 0               RS      = 0               
+TOX     = toxn            XJ      = 1E-07           NCH     = 2.3579E+17      
+LLN     = 1               LWN     = 1               WLN     = 1               
+WWN     = 1               LINT    = 4E-08           LL      = 0               
+LW      = 0               LWL     = 0               WINT    = 4E-08           
+WL      = 0               WW      = 0               WWL     = 0               
+MOBMOD  = 1               BINUNIT = 2               XL      = '4E-08+dxl'     
+XW      = '1.5E-07+dxw'   DWG     = 0               DWB     = 0               
+VTH0    = 'dvtn+0.577456' LVTH0   = 1.238667E-08    WVTH0   = -5.332265E-09   
+PVTH0   = -3.703616E-15   K1      = 0.5840231       LK1     = -1.415709E-08   
+WK1     = -6.144233E-08   PK1     = 1.105823E-14    K2      = 0.02850773      
+LK2     = -1.281315E-08   WK2     = 1.707761E-08    PK2     = -2.161258E-15   
+K3      = 0               DVT0    = 0               DVT1    = 0               
+DVT2    = 0               DVT0W   = 0               DVT1W   = 0               
+DVT2W   = 0               NLX     = 0               W0      = 0               
+K3B     = 0               VSAT    = 125126.5        LVSAT   = -0.00352569     
+WVSAT   = -0.006380474    PVSAT   = -6.420461E-11   UA      = 1.225099E-09    
+LUA     = -9.273998E-16   WUA     = -6.627784E-16   PUA     = 5.017233E-22    
+UB      = 1.06524E-19     LUB     = 1.110118E-24    WUB     = 6.680355E-25    
+PUB     = -7.844627E-31   UC      = 1.761109E-11    LUC     = 2.651899E-17    
+WUC     = 5.35883E-18     PUC     = -3.026401E-23   RDSW    = 750             
+PRWB    = 0               PRWG    = 0               WR      = 1               
+U0      = 0.04852396      LU0     = -1.030953E-08   WU0     = -7.107835E-09   
+PU0     = 6.550858E-15    A0      = 0.2892057       LA0     = 5.54301E-07     
+WA0     = 3.456886E-07    PA0     = -3.474927E-13   KETA    = 0.01674055      
+LKETA   = 2.05561E-09     WKETA   = -1.499675E-08   PKETA   = 6.657994E-15    
+A1      = 0               A2      = 0.99            AGS     = -0.02           
+B0      = 0               B1      = 0               VOFF    = -0.1297969      
+LVOFF   = 2.255623E-08    WVOFF   = 1.612011E-08    PVOFF   = -1.220292E-14   
+NFACTOR = 1.141132        LNFACTOR= -1.548256E-07   WNFACTOR= -1.848065E-07   
+PNFACTOR= 6.4675E-14      CIT     = -0.0001019393   LCIT    = 2.139854E-10    
+WCIT    = 2.21524E-10     PCIT    = -8.672054E-17   CDSC    = 0               
+CDSCB   = 0               CDSCD   = 0               ETA0    = 0.0001026328    
+LETA0   = 6.444751E-10    WETA0   = 6.79325E-10     PETA0   = -4.025308E-16   
+ETAB    = 0.0005188963    LETAB   = -3.224035E-10   WETAB   = -5.460001E-11   
+PETAB   = -1.956468E-17   DSUB    = 0               PCLM    = 1.340405        
+LPCLM   = -3.734459E-07   WPCLM   = -4.989754E-07   PPCLM   = 4.315524E-13    
+PDIBLC1 = 1E-05           PDIBLC2 = 0.002740023     LPDIBLC2= 2.777968E-09    
+WPDIBLC2= -3.936936E-09   PPDIBLC2= 1.575895E-15    PDIBLCB = 0.51734         
+LPDIBLCB= -1.820858E-07   WPDIBLCB= -2.362288E-07   PPDIBLCB= 8.842895E-14    
+DROUT   = 0               PSCBE1  = 4.628136E+08    LPSCBE1 = -4.278615       
+WPSCBE1 = -37.35901       PPSCBE1 = 8.280728E-06    PSCBE2  = 4.650106E-06    
+LPSCBE2 = -6.500404E-13   WPSCBE2 = -5.862572E-13   PPSCBE2 = 5.188126E-20    
+PVAG    = 0               DELTA   = 0.01            ALPHA0  = 2.2E-06    
+BETA0   = 20              KT1     = -0.4538582      LKT1    = 1.36073E-07     
+WKT1    = 1.148221E-07    PKT1    = -7.899374E-14   KT2     = -0.02915348     
+LKT2    = -1.901013E-09   WKT2    = 4.612973E-09    PKT2    = 4.791922E-16    
+AT      = 24259.64        LAT     = 0.006497228     WAT     = 0.0003441204    
+PAT     = -4.675523E-09   UTE     = -2.433361       LUTE    = 5.683078E-07    
+WUTE    = 5.993189E-07    PUTE    = -4.585141E-13   UA1     = -2.950993E-09   
+LUA1    = 2.15543E-15     WUA1    = 2.231175E-15    PUA1    = -1.594045E-21   
+UB1     = 4.290962E-18    LUB1    = -3.060677E-24   WUB1    = -3.240814E-24   
+PUB1    = 2.321724E-30    UC1     = 8.913981E-11    LUC1    = -5.85273E-17    
+WUC1    = -6.520661E-17   PUC1    = 6.610805E-23    KT1L    = 0               
+PRT     = 0               CJ      = cjn             PB      = 0.6944474       
+MJ      = 0.3075043       CJSW    = cjswn           PBSW    = 0.6944474       
+MJSW    = 0.1929617       CJSWG   = cjswgn          PBSWG   = 0.6944474       
+MJSWG   = 0.1929617       CGDO    = cgon            CGSO    = cgon           
+CTA     = 0.001047197     CTP     = 0.000566277     PTA     = 0.001820458     
+PTP     = 0.001820458     JS      = 1E-06           JSW     = 2E-11           
+N       = 1               XTI     = 3               CGBO    = 1E-13           
+CAPMOD  = 0               NQSMOD  = 0               XPART   = 1               
+CALCACM = 1               SFVTFLAG= 0               VFBFLAG = 1
+CF      = 0               TLEV    = 1               TLEVC   = 1              
+NLEV    = 3               AF      = 1.1             KF      = 3.5E-24  )
*
*
*
.MODEL N.10            NMOS   (                    LMIN    = '1.197E-06-dxl' 
+LMAX    = 2.001E-05       WMIN    = '1.9995E-5-dxw' WMAX    = 0.0002001       
+LEVEL   = 49              TNOM    = 25              VERSION = 3.1             
+ACM     = 12              LDIF    = 1.2E-07         HDIF    = hdifn           
+RSH     = 3.5             RD      = 0               RS      = 0               
+TOX     = toxn            XJ      = 1E-07           NCH     = 2.3579E+17      
+LLN     = 1               LWN     = 1               WLN     = 1               
+WWN     = 1               LINT    = 4E-08           LL      = 0               
+LW      = 0               LWL     = 0               WINT    = 4E-08           
+WL      = 0               WW      = 0               WWL     = 0               
+MOBMOD  = 1               BINUNIT = 2               XL      = '4E-08+dxl'     
+XW      = '1.5E-07+dxw'   DWG     = 0               DWB     = 0               
+VTH0    = 'dvtn+0.573867' LVTH0   = 2.779985E-08    WVTH0   = 1.834827E-07    
+PVTH0   = -2.537153E-13   K1      = 0.5252168       LK1     = -6.00227E-09    
+WK1     = -8.621311E-08   PK1     = 3.065219E-13    K2      = 0.02639941      
+LK2     = 3.399094E-09    WK2     = 1.982855E-08    PK2     = -1.969619E-13   
+K3      = 0               DVT0    = 0               DVT1    = 0               
+DVT2    = 0               DVT0W   = 0               DVT1W   = 0               
+DVT2W   = 0               NLX     = 0               W0      = 0               
+K3B     = 0               VSAT    = 252292.4        LVSAT   = -0.04575563     
+WVSAT   = -0.04035115     PVSAT   = 8.05407E-07     UA      = -7.24405E-10    
+LUA     = 8.381365E-16    WUA     = 1.453881E-14    PUA     = -1.68214E-20    
+UB      = 2.345715E-18    LUB     = -2.226582E-25   WUB     = -1.027581E-23   
+PUB     = 2.484823E-29    UC      = 4.615152E-11    LUC     = 3.857576E-17    
+WUC     = -7.907047E-18   PUC     = 1.263106E-21    RDSW    = 750             
+PRWB    = 0               PRWG    = 0               WR      = 1               
+U0      = 0.03919688      LU0     = 7.260739E-09    WU0     = 1.347998E-07    
+PU0     = -8.846608E-14   A0      = 0.5037673       LA0     = 7.85895E-07     
+WA0     = 6.219605E-07    PA0     = -5.15116E-12    KETA    = 0.002817432     
+LKETA   = 1.493325E-09    WKETA   = -1.99574E-07    PKETA   = 4.212874E-13    
+A1      = 0               A2      = 0.99            AGS     = 0.02271348      
+LAGS    = -5.416118E-08   WAGS    = -5.044038E-08   PAGS    = 1.006789E-12    
+B0      = 0               B1      = 0               VOFF    = -0.1189314      
+LVOFF   = 2.319404E-08    WVOFF   = -4.598956E-07   PVOFF   = 2.739907E-13    
+NFACTOR = 1.089922        LNFACTOR= 9.598773E-08    WNFACTOR= -6.85674E-07    
+PNFACTOR= -7.90323E-12    CIT     = -0.0001082044   LCIT    = -1.689717E-10   
+WCIT    = 1.107059E-09    PCIT    = 8.452781E-15    CDSC    = 0               
+CDSCB   = 0               CDSCD   = 0               ETA0    = 7.249157E-05    
+LETA0   = 9.312456E-10    WETA0   = 2.702816E-09    PETA0   = -8.531265E-15   
+ETAB    = 1.006954E-05    LETAB   = -1.165046E-11   WETAB   = 1.091676E-10    
+PETAB   = -1.26307E-16    DSUB    = 0               PCLM    = 0.1835406       
+LPCLM   = 3.285299E-07    WPCLM   = -4.001211E-07   PPCLM   = 7.986417E-12    
+PDIBLC1 = 1E-05           PDIBLC2 = 0.0001414216    LPDIBLC2= 2.353715E-09    
+WPDIBLC2= -5.218425E-09   PPDIBLC2= 1.332865E-14    PDIBLCB = 0.1387533       
+WPDIBLCB= -7.057525E-12   PPDIBLCB= 8.165556E-18    DROUT   = 0               
+PSCBE1  = 4.165804E+08    LPSCBE1 = 95.77778        WPSCBE1 = 1019.492        
+PPSCBE1 = -0.002896602    PSCBE2  = 4.548235E-05    LPSCBE2 = -3.306664E-11   
+WPSCBE2 = 1.979787E-09    PPSCBE2 = -2.581678E-15   PVAG    = 0               
+DELTA   = 0.01            ALPHA0  = 2.2E-06         BETA0   = 20              
+KT1     = -0.2931179      LKT1    = 1.801193E-08    WKT1    = -3.61053E-07    
+PKT1    = 8.219776E-14    KT2     = -0.02856419     LKT2    = 1.112164E-08    
+WKT2    = -2.073161E-07   PKT2    = -2.256764E-13   AT      = 19775.05        
+LAT     = 0.0002602652    WAT     = 0.04499414      PAT     = -5.205822E-08   
+UTE     = -1.521588       LUTE    = -4.869755E-07   WUTE    = -1.113944E-05   
+PUTE    = 4.066578E-13    UA1     = 2.095525E-09    LUA1    = -2.265202E-15   
+WUA1    = -3.674968E-14   PUA1    = -1.292539E-20   UB1     = -2.793395E-18   
+LUB1    = 1.051028E-24    WUB1    = 2.017566E-23    PUB1    = 4.968646E-29    
+UC1     = 1.197262E-11    LUC1    = 5.621364E-18    WUC1    = 6.641072E-17    
+PUC1    = 5.479812E-23    KT1L    = 0               PRT     = 0               
+CJ      = cjn             PB      = 0.6944474       MJ      = 0.3075043       
+CJSW    = cjswn           PBSW    = 0.6944474       MJSW    = 0.1929617       
+CJSWG   = cjswgn          PBSWG   = 0.6944474       MJSWG   = 0.1929617       
+CGDO    = cgon            CGSO    = cgon            CTA     = 0.001047197     
+CTP     = 0.000566277     PTA     = 0.001820458     PTP     = 0.001820458     
+JS      = 1E-06           JSW     = 2E-11           N       = 1               
+XTI     = 3               CGBO    = 1E-13           CAPMOD  = 0               
+NQSMOD  = 0               XPART   = 1               CF      = 0               
+TLEV    = 1               TLEVC   = 1               
+CALCACM = 1               SFVTFLAG= 0               VFBFLAG = 1
+NLEV    = 3               AF      = 1.1             KF      = 3.5E-24  )
*
*
*
.MODEL N.11            NMOS   (                    LMIN    = '7.97E-07-dxl'  
+LMAX    = '1.197E-06-dxl' WMIN    = '1.9995E-5-dxw' WMAX    = 0.0002001       
+LEVEL   = 49              TNOM    = 25              VERSION = 3.1             
+ACM     = 12              LDIF    = 1.2E-07         HDIF    = hdifn           
+RSH     = 3.5             RD      = 0               RS      = 0               
+TOX     = toxn            XJ      = 1E-07           NCH     = 2.3579E+17      
+LLN     = 1               LWN     = 1               WLN     = 1               
+WWN     = 1               LINT    = 4E-08           LL      = 0               
+LW      = 0               LWL     = 0               WINT    = 4E-08           
+WL      = 0               WW      = 0               WWL     = 0               
+MOBMOD  = 1               BINUNIT = 2               XL      = '4E-08+dxl'     
+XW      = '1.5E-07+dxw'   DWG     = 0               DWB     = 0               
+VTH0    = 'dvtn+0.582027' LVTH0   = 1.835915E-08    WVTH0   = -1.578564E-07   
+PVTH0   = 1.412141E-13    K1      = 0.5241717       LK1     = -4.79307E-09    
+WK1     = -2.108335E-07   PK1     = 4.507077E-13    K2      = 0.03641037      
+LK2     = -8.183586E-09   WK2     = -2.060676E-07   PK2     = 6.439987E-14    
+K3      = 0               DVT0    = 0               DVT1    = 0               
+DVT2    = 0               DVT0W   = 0               DVT1W   = 0               
+DVT2W   = 0               NLX     = 0               W0      = 0               
+K3B     = 0               VSAT    = 373930.9        LVSAT   = -0.1864914      
+WVSAT   = 1.994608        PVSAT   = -1.54904E-06    UA      = 0               
+UB      = 1.914644E-18    LUB     = 2.760912E-25    WUB     = 2.52184E-23     
+PUB     = -1.621856E-29   UC      = 4.457098E-11    LUC     = 4.040445E-17    
+WUC     = 2.374904E-15    PUC     = -1.493807E-21   RDSW    = 750             
+PRWB    = 0               PRWG    = 0               WR      = 1               
+U0      = 0.04759424      LU0     = -2.45501E-09    WU0     = 6.7406E-08      
+PU0     = -1.049149E-14   A0      = 1.650302        LA0     = -5.406457E-07   
+WA0     = -4.224581E-06   PA0     = 4.562885E-13    KETA    = 0.01947919      
+LKETA   = -1.778433E-08   WKETA   = 9.212223E-08    PKETA   = 8.379479E-14    
+A1      = 0               A2      = 0.99            AGS     = -0.03185416     
+LAGS    = 8.973608E-09    WAGS    = 2.371074E-06    PAGS    = -1.794903E-12   
+B0      = 0               B1      = 0               VOFF    = -0.09123702     
+LVOFF   = -8.848366E-09   WVOFF   = -1.752774E-06   PVOFF   = 1.769851E-12    
+NFACTOR = 1.222301        LNFACTOR= -5.717442E-08   WNFACTOR= -2.414606E-05   
+PNFACTOR= 1.924044E-11    CIT     = -0.000465483    LCIT    = 2.443997E-10    
+WCIT    = 1.887087E-08    PCIT    = -1.209995E-14   CDSC    = 0               
+CDSCB   = 0               CDSCD   = 0               ETA0    = 0.001006404     
+LETA0   = -1.492916E-10   WETA0   = -1.674689E-08   PETA0   = 1.397204E-14    
+ETAB    = 0.0004207145    LETAB   = -4.867667E-10   WETAB   = -8.443741E-09   
+PETAB   = 9.769408E-15    DSUB    = 0               PCLM    = 1.103208        
+LPCLM   = -7.355258E-07   WPCLM   = -7.092375E-06   PPCLM   = 1.572935E-11    
+PDIBLC1 = 1E-05           PDIBLC2 = -0.0006829988   LPDIBLC2= 3.307569E-09    
+WPDIBLC2= -8.802439E-09   PPDIBLC2= 1.747535E-14    PDIBLCB = 0.165166        
+LPDIBLCB= -3.055946E-08   WPDIBLCB= -5.283063E-06   PPDIBLCB= 6.112504E-12    
+DROUT   = 0               PSCBE1  = 5.782287E+08    LPSCBE1 = -91.24936       
+WPSCBE1 = -2417.312       PPSCBE1 = 0.00107978      PSCBE2  = 2.780112E-05    
+LPSCBE2 = -1.260945E-11   WPSCBE2 = -4.8423E-10     PPSCBE2 = 2.691904E-16    
+PVAG    = 0               DELTA   = 0.01            ALPHA0  = 2.2E-06     
+BETA0   = 20              KT1     = -0.2967363      LKT1    = 2.21984E-08     
+WKT1    = 2.411989E-06    PKT1    = -3.126211E-12   KT2     = -0.01637687     
+LKT2    = -2.979088E-09   WKT2    = -4.312568E-07   PKT2    = 3.342291E-14    
+AT      = 20000           UTE     = -1.750235       LUTE    = -2.224312E-07   
+WUTE    = -1.806481E-05   PUTE    = 8.419307E-12    UA1     = 1.727004E-09    
+LUA1    = -1.838825E-15   WUA1    = -9.563957E-14   PUA1    = 5.521022E-20    
+UB1     = -3.586383E-18   LUB1    = 1.968516E-24    WUB1    = 1.152073E-22    
+PUB1    = -6.02651E-29    UC1     = 2.534887E-11    LUC1    = -9.854957E-18   
+WUC1    = 3.777932E-17    PUC1    = 8.792466E-23    KT1L    = 0               
+PRT     = 0               CJ      = cjn             PB      = 0.6944474       
+MJ      = 0.3075043       CJSW    = cjswn           PBSW    = 0.6944474       
+MJSW    = 0.1929617       CJSWG   = cjswgn          PBSWG   = 0.6944474       
+MJSWG   = 0.1929617       CGDO    = cgon            CGSO    = cgon           
+CTA     = 0.001047197     CTP     = 0.000566277     PTA     = 0.001820458     
+PTP     = 0.001820458     JS      = 1E-06           JSW     = 2E-11           
+N       = 1               XTI     = 3               CGBO    = 1E-13           
+CAPMOD  = 0               NQSMOD  = 0               XPART   = 1               
+CALCACM = 1               SFVTFLAG= 0               VFBFLAG = 1
+CF      = 0               TLEV    = 1               TLEVC   = 1               
+NLEV    = 3               AF      = 1.1             KF      = 3.5E-24  )
*
*
*
.MODEL N.12            NMOS   (                    LMIN    = 3.5E-07         
+LMAX    = '7.97E-07-dxl'  WMIN    = '1.9995E-5-dxw' WMAX    = 0.0002001       
+LEVEL   = 49              TNOM    = 25              VERSION = 3.1             
+ACM     = 12              LDIF    = 1.2E-07         HDIF    = hdifn           
+RSH     = 3.5             RD      = 0               RS      = 0               
+TOX     = toxn            XJ      = 1E-07           NCH     = 2.3579E+17      
+LLN     = 1               LWN     = 1               WLN     = 1               
+WWN     = 1               LINT    = 4E-08           LL      = 0               
+LW      = 0               LWL     = 0               WINT    = 4E-08           
+WL      = 0               WW      = 0               WWL     = 0               
+MOBMOD  = 1               BINUNIT = 2               XL      = '4E-08+dxl'     
+XW      = '1.5E-07+dxw'   DWG     = 0               DWB     = 0               
+VTH0    = 'dvtn+0.594318' LVTH0   = 9.054964E-09    WVTH0   = 3.128072E-07    
+PVTH0   = -2.150783E-13   K1      = 0.4970239       LK1     = 1.575782E-08    
+WK1     = 5.117255E-07    PK1     = -9.626959E-14   K2      = 0.05471195      
+LK2     = -2.203789E-08   WK2     = -1.899347E-07   PK2     = 5.218731E-14    
+K3      = 0               DVT0    = 0               DVT1    = 0               
+DVT2    = 0               DVT0W   = 0               DVT1W   = 0               
+DVT2W   = 0               NLX     = 0               W0      = 0               
+K3B     = 0               VSAT    = 146543.8        LVSAT   = -0.01435934     
+WVSAT   = -0.04225456     PVSAT   = -7.135531E-09   UA      = 6.40111E-10     
+LUA     = -4.845641E-16   WUA     = -1.284703E-14   PUA     = 9.725203E-21    
+UB      = 1.66145E-18     LUB     = 4.677592E-25    WUB     = 2.368592E-23    
+PUB     = -1.505848E-29   UC      = 9.845423E-11    LUC     = -3.851641E-19   
+WUC     = 1.175987E-15    PUC     = -5.862264E-22   RDSW    = 750             
+PRWB    = 0               PRWG    = 0               WR      = 1               
+U0      = 0.05001819      LU0     = -4.289937E-09   WU0     = -4.332781E-08   
+PU0     = 7.333401E-14    A0      = 1.116024        LA0     = -1.361973E-07   
+WA0     = -7.910137E-06   PA0     = 3.246254E-12    KETA    = 0.0027003       
+LKETA   = -5.082708E-09   WKETA   = -1.948636E-07   PKETA   = 3.010431E-13    
+A1      = 0               A2      = 0.99            AGS     = -0.02           
+B0      = 0               B1      = 0               VOFF    = -0.1001952      
+LVOFF   = -2.067061E-09   WVOFF   = 5.116924E-07    PVOFF   = 5.564995E-14    
+NFACTOR = 1.281107        LNFACTOR= -1.016906E-07   WNFACTOR= 1.374192E-06    
+PNFACTOR= -7.839543E-14   CIT     = -0.0003555303   LCIT    = 1.611655E-10    
+WCIT    = 5.612513E-09    PCIT    = -2.063372E-15   CDSC    = 0               
+CDSCB   = 0               CDSCD   = 0               ETA0    = -0.000377821    
+LETA0   = 8.985671E-10    WETA0   = -6.891668E-10   PETA0   = 1.816348E-15    
+ETAB    = 0.0007059512    LETAB   = -7.026909E-10   WETAB   = 4.901367E-09    
+PETAB   = -3.328384E-16   DSUB    = 0               PCLM    = -0.06020734     
+LPCLM   = 1.4518E-07      WPCLM   = 1.706562E-05    PPCLM   = -2.558246E-12   
+PDIBLC1 = 1E-05           PDIBLC2 = 5.951716E-05    LPDIBLC2= 2.745485E-09    
+WPDIBLC2= 2.084231E-09    PPDIBLC2= 9.234147E-15    PDIBLCB = 0.0800342       
+LPDIBLCB= 3.388531E-08    WPDIBLCB= 6.870473E-06    PPDIBLCB= -3.087724E-12   
+DROUT   = 0               PSCBE1  = 4.691208E+08    LPSCBE1 = -8.654633       
+WPSCBE1 = -2440.24        PPSCBE1 = 0.001097138     PSCBE2  = 1.374289E-05    
+LPSCBE2 = -1.967376E-12   WPSCBE2 = -1.997057E-10   PPSCBE2 = 5.380545E-17    
+PVAG    = 0               DELTA   = 0.01            ALPHA0  = 2.2E-06     
+BETA0   = 20              KT1     = -0.2643045      LKT1    = -2.352493E-09   
+WKT1    = -3.40949E-06    PKT1    = 1.280649E-12    KT2     = -0.01187656     
+LKT2    = -6.385827E-09   WKT2    = -8.877606E-07   PKT2    = 3.789964E-13    
+AT      = 20972.06        LAT     = -0.0007358537   WAT     = -0.02498623     
+PAT     = 1.891458E-08    UTE     = -2.462943       LUTE    = 3.170886E-07    
+WUTE    = 5.818838E-08    PUTE    = -5.299801E-12   UA1     = -2.466806E-09   
+LUA1    = 1.335891E-15    WUA1    = 3.568011E-15    PUA1    = -1.988993E-20   
+UB1     = 6.30069E-19     LUB1    = -1.223339E-24   WUB1    = 1.37198E-23     
+PUB1    = 1.656091E-29    UC1     = 9.403619E-12    LUC1    = 2.215601E-18    
+WUC1    = 1.852849E-16    PUC1    = -2.373712E-23   KT1L    = 0               
+PRT     = 0               CJ      = cjn             PB      = 0.6944474       
+MJ      = 0.3075043       CJSW    = cjswn           PBSW    = 0.6944474       
+MJSW    = 0.1929617       CJSWG   = cjswgn          PBSWG   = 0.6944474       
+MJSWG   = 0.1929617       CGDO    = cgon            CGSO    = cgon           
+CTA     = 0.001047197     CTP     = 0.000566277     PTA     = 0.001820458     
+PTP     = 0.001820458     JS      = 1E-06           JSW     = 2E-11           
+N       = 1               XTI     = 3               CGBO    = 1E-13           
+CAPMOD  = 0               NQSMOD  = 0               XPART   = 1               
+CALCACM = 1               SFVTFLAG= 0               VFBFLAG = 1
+CF      = 0               TLEV    = 1               TLEVC   = 1              
+NLEV    = 3               AF      = 1.1             KF      = 3.5E-24  )
*
**************************************************************************
*
*
***************************************************************
*                                                             *
*                 PMOS DEVICES MODEL                          *
*                                                             *
***************************************************************
*
.MODEL P.1            PMOS   (                     LMIN    = '1.199E-06-dxl' 
+LMAX    = 2.001E-05       WMIN    = '1.195E-06-dxw' WMAX    = '1.9995E-5-dxw' 
+LEVEL   = 49              TNOM    = 25              VERSION = 3.1             
+ACM     = 12              LDIF    = 1.2E-07         HDIF    = hdifp           
+RSH     = 2.6             RD      = 0               RS      = 0               
+TOX     = toxp            XJ      = 1E-07           NCH     = 8.52E+16        
+LLN     = 1               LWN     = 1               WLN     = 1               
+WWN     = 1               LINT    = 5E-08           LL      = 0               
+LW      = 0               LWL     = 0               WINT    = 5E-08           
+WL      = 0               WW      = 0               WWL     = 0               
+MOBMOD  = 1               BINUNIT = 2               XL      = '4E-08+dxl'     
+XW      = '1.5E-07+dxw'   DWG     = 0               DWB     = 0               
+VTH0    = 'dvtp-0.6513801' LVTH0   = -7.041346E-08   WVTH0   = -6.868116E-08   
+PVTH0   = 2.112457E-14    K1      = 0.4301105       LK1     = -4.233106E-08   
+WK1     = -6.382339E-08   PK1     = 5.663198E-14    K2      = -3.791622E-04   
+LK2     = -5.64093E-09    WK2     = 1.367555E-08    PK2     = -8.001636E-15   
+K3      = 0               DVT0    = 0               DVT1    = 0               
[...]
+DVT1W   = 0              DVT2W    = 0              NLX      = 0              
+W0      = 0              K3B      = 0              VSAT     = 428933.2       
+LVSAT   = -0.1326668     WVSAT    = -3.02009       PVSAT    = 1.335778E-06   
+UA      = 6.389647E-09   LUA      = -1.696149E-15  WUA      = -8.308323E-14  
+PUA     = 3.563615E-20   UB       = 5.201392E-18   LUB      = -1.65811E-24   
+WUB     = -8.738225E-23  PUB      = 3.690857E-29   UC       = 3.367139E-10   
+LUC     = -1.707881E-16  WUC      = -8.039176E-15  PUC      = 3.502871E-21   
+RDSW    = 1200           PRWB     = 0              PRWG     = 0              
+WR      = 1              U0       = 0.02590158     LU0      = -4.554344E-09  
+WU0     = -1.454208E-07  PU0      = 5.652454E-14   A0       = 0.1109957      
+LA0     = 2.728058E-07   WA0      = 1.332585E-05   PA0      = -6.336447E-12  
+KETA    = -0.02410526    LKETA    = 1.230411E-08   WKETA    = 6.568426E-07   
+PKETA   = -3.143442E-13  A1       = 0              A2       = 0.4            
+AGS     = 0.02445383     WAGS     = -8.908547E-07  B0       = 0              
+B1      = 0              VOFF     = -0.1036549     LVOFF    = -1.570199E-08  
+WVOFF   = -4.436917E-07  PVOFF    = 8.228967E-14   NFACTOR  = 1              
+CIT     = -0.0002477768  LCIT     = 4.515706E-11   WCIT     = -2.355011E-09  
+PCIT    = 7.895563E-17   CDSC     = 0              CDSCB    = 0              
+CDSCD   = 0              ETA0     = -0.001509612   LETA0    = 2.28175E-09    
+WETA0   = -3.625027E-08  PETA0    = 1.684782E-14   ETAB     = 0.0009983609   
+LETAB   = -7.841795E-10  WETAB    = -1.713912E-08  PETAB    = 8.734843E-15   
+DSUB    = 0              PCLM     = 2.852514       LPCLM    = -3.154274E-07  
+WPCLM   = 1.797234E-05   PPCLM    = -7.507416E-12  PDIBLC1  = 1E-05          
+PDIBLC2 = -0.005376238   LPDIBLC2 = 1.438895E-08   WPDIBLC2 = 3.608737E-07   
+PPDIBLC2= -1.775363E-13  PDIBLCB  = 0.3995473      LPDIBLCB = -1.024771E-07  
+WPDIBLCB= -1.421124E-06  PPDIBLCB = 1.111584E-12   DROUT    = 0              
+PSCBE1  = 5.151715E+08   LPSCBE1  = -5.718817      WPSCBE1  = 1068.011       
+PPSCBE1 = -0.0006706883  PSCBE2   = 3.723871E-06   LPSCBE2  = -4.378653E-13  
+WPSCBE2 = 4.21387E-11    PPSCBE2  = -3.463113E-17  PVAG     = 0              
+DELTA   = 0.01           ALPHA0   = 1.59E-06       BETA0    = 38.1       
+KT1     = -0.5290989     LKT1     = -3.381941E-08  WKT1     = -1.121254E-06  
+PKT1    = 4.810084E-13   KT2      = -0.04552927    LKT2     = -3.599683E-09  
+WKT2    = -1.002265E-08  PKT2     = 1.787794E-14   AT       = 20000          
+UTE     = -2.565668      LUTE     = 5.409139E-07   WUTE     = 1.82371E-05    
+PUTE    = -1.059899E-11  UA1      = -5.47755E-09   LUA1     = 1.535352E-15   
+WUA1    = 8.204861E-14   PUA1     = -3.717884E-20  UB1      = -2.802661E-17  
+LUB1    = 1.30382E-23    WUB1     = 5.141219E-22   PUB1     = -2.519899E-28  
+UC1     = -1.533849E-09  LUC1     = 7.243943E-16   WUC1     = 2.896078E-14   
+PUC1    = -1.410236E-20  KT1L     = 0              PRT      = 0              
+CJ      = cjp5           MJ       = 0.5918653      PB       = 0.9191281       
+CJSW    = cjswp5         MJSW     = 0.4171692      PBSW     = 0.9191281       
+CJSWG   = cjswgp5        PBSWG    = 0.9191281      MJSWG    = 0.4171692       
+CTA     = 9.074913E-04   CTP      = 5.432845E-04   PTA      = 1.098908E-03    
+PTP     = 1.098908E-03   JS       = 3E-07          JSW      = 1E-11          
+N       = 1              XTI      = 3              CGDO     = cgop5           
+CGSO    = cgop5          CGBO     = 1E-13          CAPMOD   = 0               
+NQSMOD  = 0        
+CALCACM = 1              SFVTFLAG = 0              VFBFLAG  = 1
+NLEV    = 3              AF       = 1.2            KF       = 1.0E-23  )
*
*
*
*                                                    
*                                                                               
**************************************************************************
*                                                                               
*
*
*
*
***************************************************************
*                                                             *
*                                                             *
*                MODEL OF 5V NMOS WITH ESD IMPLANT            *
*                                                             *
*                                                             *
*                                                             *
***************************************************************
*
*
*  NOTE : 1. Users should specify NRS/NRD in their netlists  
*            because of the asymmetric "RPO edge to poly gate"
*            rule in source/drain. Also, the resistance of heavily
*            doped diffusion consists of two different parts:
*            (a) RPO edge to poly gate, RSH=41.9 ohm/sq (b) RPO edge
*            to CONTACT center, RSH=3.5 ohm/sq. Part (b) is so 
*            small that it can be ignored in effective source/drain 
*            resistance calculation. That is,
*             
*            NRS = (length of RPO edge to poly gate at source side)/ width, and
*            NRD = (length of RPO edge to poly gate at drain side)/ width.    
*
*
.MODEL   esd5v          NMOS   (                    LMIN     = 8E-07          
+LMAX    = 2E-06          WMIN     = 2E-05          WMAX     = 0.0002         
+XL      = '5E-08+dxl5'   XW       = '1.5E-7+dxw5'  LEVEL    = 49             
+TNOM    = 25             VERSION  = 3.1            ACM      = 12             
+LDIF    = 1.2E-07        HDIF     = hdife5         RSH      = 41.8951        
+RD      = 0              RS       = 0              XPART    = 1           
+CF      = 0              TOX      = toxe5          XJ       = 1.8E-07        
+NCH     = 1.2451E+17     LLN      = 1              LWN      = 1              
+WLN     = 1              WWN      = 1              LINT     = 6.75E-08       
+WINT    = 6.35E-08       MOBMOD   = 1              BINUNIT  = 2              
+DWG     = 0              DWB      = 0              VTH0     = 'dvte5+0.7374289'      
+LVTH0   = 1.097373E-07   WVTH0    = 1.426343E-06   PVTH0    = -1.177005E-12  
+K1      = 0.6732051      LK1      = 1.655992E-07   WK1      = 6.455538E-06   
+PK1     = -3.616901E-12  K2       = 0.1576376      LK2      = -6.735815E-08  
+WK2     = -2.194884E-06  PK2      = 1.346018E-12   K3       = 0              
+DVT0    = 0              DVT1     = 0              DVT2     = 0              
+DVT0W   = 0              DVT1W    = 0              DVT2W    = 0              
+NLX     = 0              W0       = 0              K3B      = 0              
+VSAT    = 123330.7       WVSAT    = -0.666047      UA       = -3.811411E-10  
+LUA     = 1.021867E-17   WUA      = 8.449502E-15   PUA      = -1.078087E-20  
+UB      = 2.056772E-18   LUB      = 2.767265E-24   WUB      = -3.413875E-24  
+PUB     = -4.790668E-29  UC       = 5.207334E-11   LUC      = 2.471822E-16   
+WUC     = 2.81753E-16    PUC      = -5.019232E-21  RDSW     = 960            
+PRWB    = 0              PRWG     = -0.0001028636  LPRWG    = -9.959767E-12  
+WPRWG   = -1.658605E-08  PPRWG    = 1.991683E-15   WR       = 1              
+U0      = 0.0387462      LU0      = 9.764158E-09   WU0      = 2.231571E-07   
+PU0     = -2.09398E-13   A0       = 0.8724309      LA0      = -1.428881E-07  
+WA0     = -7.930767E-06  PA0      = 1.265256E-11   KETA     = -0.01          
+A1      = 1E-20          A2       = 1              AGS      = 0              
+B0      = 0              B1       = 0              VOFF     = -0.04738585    
+LVOFF   = -2.2712E-08    WVOFF    = -1.72452E-06   PVOFF    = 1.205467E-12   
+NFACTOR = 1.098234       LNFACTOR = 1.227385E-07   WNFACTOR = -3.479273E-06  
+PNFACTOR= 1.420206E-12   CIT      = 0              CDSC     = 0              
+CDSCB   = 0              CDSCD    = 0              ETA0     = 0.0001656895   
+LETA0   = -2.167476E-10  WETA0    = -2.050201E-08  PETA0    = 3.805338E-14   
+ETAB    = -0.0005251663  LETAB    = 1.879336E-11   WETAB    = 5.455993E-10   
+PETAB   = -6.167495E-16  DSUB     = 0              PCLM     = 1.062597       
+LPCLM   = -1.193105E-07  WPCLM    = -1.251777E-05  PPCLM    = 2.385886E-11   
+PDIBLC1 = 1E-20          PDIBLC2  = 0.005          PDIBLCB  = 0              
+DROUT   = 0              PSCBE1   = 3.856489E+08   LPSCBE1  = -28.34423      
+WPSCBE1 = -281.4534      PPSCBE1  = -0.0002936242  PSCBE2   = 5.601866E-05   
+LPSCBE2 = -1.86425E-11   WPSCBE2  = 2.401364E-10   PPSCBE2  = -5.101851E-16  
+PVAG    = 1              DELTA    = 0.0001         ALPHA0   = 0              
+BETA0   = 30             KT1      = -0.3530317     LKT1     = -2.95061E-08   
+WKT1    = -7.805656E-07  PKT1     = 5.197041E-13   KT2      = -0.03836057    
+LKT2    = -6.24923E-09   WKT2     = -1.626546E-07  PKT2     = 1.745677E-13   
+AT      = 7078.098       LAT      = 0.0006602349   WAT      = 0.02942634     
+PAT     = -3.112004E-08  UTE      = -0.8467374     LUTE     = 8.474345E-08   
+WUTE    = -1.594635E-05  PUTE     = 4.580869E-12   UA1      = 1.897719E-09   
+LUA1    = 4.612271E-15   WUA1     = -1.185229E-14  PUA1     = -6.796615E-20  
+UB1     = -1.393512E-18  LUB1     = -7.612578E-24  WUB1     = -2.796271E-23  
+PUB1    = 1.575625E-28   UC1      = -1.423587E-10  LUC1     = 1.865505E-17   
+WUC1    = 1.030472E-15   PUC1     = 1.239864E-21   KT1L     = 0              
+PRT     = 0              TLEV     = 1              TLEVC    = 1            
+CJ      = cje5           MJ       = 0.5239749      PB       = 0.985          
+CJSW    = cjswe5         MJSW     = 0.3820152      PBSW     = 0.985          
+CJSWG   = cjswge5        MJSWG    = 0.3820152      PBSWG    = 0.985         
+CTA     = 8.222091E-4    CTP      = 5.361624E-4    PTA      = 1.16752E-3    
+PTP     = 1.16752E-3     JS       = 1E-06          JSW      = 2E-11          
+N       = 1              XTI      = 3              CGDO     = cgoe5     
+CGSO    = cgoe5          CGBO     = 1E-13          CAPMOD   = 0              
+CALCACM = 1              SFVTFLAG = 0              VFBFLAG  = 1
+NQSMOD  = 0            ) 
*
**************************************************************************
*
.ENDL MOS_5V
*
***************************************************************
*                                                             *
*        MODEL OF P+/NW/PSUB VERTICAL PNP10X10 BIPOLAR        *  
*                 EMITTER AREA :  10X10   UM^2                *
*                   BASE  AREA :  28X28   UM^2                *
*                                                             *
***************************************************************  
.LIB BIP                                                                        
.MODEL PNP10 PNP (                                  LEVEL  = 1                  
+ BF     = 3.524           NF     = 0.98            IS     = 8E-18              
+ ISC    = 8E-18           ISE    = 8E-18           NE     = 1.18               
+ RB     = 65              IRB    = 1.375031E-3     RBM    = 0.1674751          
+ RE     = 0.06            IKF    = 2.11E-3         NKF    = 0.7                
+ VAF    = 170             BR     = 0.0126          NR     = 0.9738             
+ NC     = 1.6             RC     = 22              IKR    = 9E-3               
+ VAR    = 10.3            TBF1   = 4.5E-3          TBF2   = 7E-6               
+ TNE1   = 1E-3            TNE2   = -7E-7           TNF1   = -1E-5              
+ TNF2   = -3E-6           TRB1   = 2.086219E-4     TIRB1  = 2.877522E-4        
+ TRM1   = 9.44068E-6      TRE1   = -2.2324E-5      TIKF1  = -1.349389E-3       
+ TIKF2  = 9.954791E-6     TVAF1  = 5.3E-5          TBR1   = -6E-5              
+ TBR2   = 3E-6            TNR1   = 1E-4            TNR2   = -4E-6              
+ TNC1   = -4.507315E-4    TNC2   = 2E-6            XTB    = 0                  
+ XTI    = 3               TRC1   = 1E-3            TIKR1  = -1E-5              
+ EG     = 1.18            CJE    = 1.41674E-13     VJE    = 0.9212359          
+ MJE    = 0.5470712       FC     = 0.5             CJC    = 8.453176E-14       
+ VJC    = 0.5725063       MJC    = 0.3486293       TLEVC  = 1                  
+ CTE    = 9.467581E-4     CTC    = 2.92403E-3      TVJE   = 1.280806E-3        
+ TVJC   = 3.012843E-3     TREF   = 25              SUBS   = 1                  
+ TLEV   = 0               )                                                    
*                                                                               
.ENDL BIP                                                                       
***************************************************************
*                                                             *
*                       MODEL OF N+/PW DIODE                  *
*                                                             *
***************************************************************  
.LIB DIO             
.MODEL NDIO D (                                     LEVEL  = 3                  
+ IS     = 1.064246E-5     RS     = 2.1E-7          N      = 1.35               
+ BV     = 8               IBV    = 0.02            IK     = 1E20               
+ IKR    = 1E10            JSW    = 8E-11           AREA   = 7.5E-8             
+ PJ     = 1.1E-3          CJ     = 1.01893E-3      PB     = 0.6944474          
+ MJ     = 0.3075043       CJSW   = 3.057956E-10    PHP    = 0.6944474          
+ MJSW   = 0.1929617       TLEV   = 1               EG     = 1.17               
+ XTI    = 3               TCV    = 1.8E-4          TRS    = 6E-5               
+ TLEVC  = 1               CTA    = 1.047197E-3     CTP    = 5.66277E-4         
+ TPB    = 1.820458E-3     TPHP   = 1.820458E-3     TREF   = 25                 
+ FC     = 0.5             )                                                    
*                                                                               
***************************************************************
*                                                             *
*                       MODEL OF P+/NW DIODE                  *
*                                                             *
***************************************************************
.MODEL PDIO D (                                     LEVEL  = 3                  
+ IS     = 1.064246E-5     RS     = 2E-7            N      = 1.28               
+ BV     = 8.6             IBV    = 0.03            IK     = 1E20               
+ IKR    = 1E10            JSW    = 4E-11           AREA   = 7.5E-8             
+ PJ     = 1.1E-3          CJ     = 1.416829E-3     PB     = 0.9191281          
+ MJ     = 0.5464087       CJSW   = 4.173308E-10    PHP    = 0.9191281          
+ MJSW   = 0.3948903       TLEV   = 1               EG     = 1.17               
+ XTI    = 3               TCV    = -3E-4           TRS    = 6E-4               
+ TLEVC  = 1               CTA    = 9.472773E-4     CTP    = 6.252666E-4        
+ TPB    = 1.27702E-3      TPHP   = 1.27702E-3      TREF   = 25                 
+ FC     = 0.5             )                                                    
*                                                                               
***************************************************************
*                                                             *
*                       MODEL OF NW/PSUB DIODE                *
*                                                             *
***************************************************************
.MODEL NWDIO D (                                    LEVEL  = 3                  
+ IS     = 9.1296E-6       RS     = 2.69E-7         N      = 1.2645946          
+ BV     = 32              IBV    = 0.03            IK     = 1E20               
+ IKR    = 1E10            JSW    = 2E-11           AREA   = 5.5151E-8          
+ PJ     = 0.014058        CJ     = 1.078149E-4     PB     = 0.5753012          
+ MJ     = 0.3489087       CJSW   = 4.703601E-10    PHP    = 0.5753012          
+ MJSW   = 0.2776951       TLEV   = 1               EG     = 1.17               
+ XTI    = 3               TCV    = -9.4E-4         TRS    = 2.78E-3            
+ TLEVC  = 1               CTA    = 2.929317E-3     CTP    = 2.198937E-3        
+ TPB    = 3.037883E-3     TPHP   = 3.037883E-3     TREF   = 25                 
+ FC     = 0.5             )                                                    
*                                                                               
.ENDL DIO                                                                       
***************************************************************
*                                                             *
*                     RESISTOR MODEL                          *
*                                                             *
***************************************************************
.LIB RES
.subckt rnod n1 n2 l=length w=width
.param rsh=3.5 dw=-0.055u ptc1=3.59e-3 ptc2=5.8e-7 pvc1=4.95e-4 pvc2=3.38e-4 pt='temper'
.param tfac='1.0+ptc1*(pt-25.0)+ptc2*(pt-25.0)*(pt-25.0)'
r1 n1 n2 'rsh*l/(w-dw)*(1+pvc1*abs(v(n2,n1))+pvc2*v(n2,n1)*v(n2,n1))*tfac'
.ends rnod

.subckt rnodrpo n1 n2 l=length w=width
.param rsh=87 dw=-0.055u ptc1=1.55e-3 ptc2=0 pvc1=1.40e-3 pvc2=-1.21e-4 pt='temper'
.param tfac='1.0+ptc1*(pt-25.0)+ptc2*(pt-25.0)*(pt-25.0)'
r1 n1 n2 'rsh*l/(w-dw)*(1+pvc1*abs(v(n2,n1))+pvc2*v(n2,n1)*v(n2,n1))*tfac'
.ends rnodrpo

.subckt rpod n1 n2 l=length w=width
.param rsh=2.6 dw=-0.139u ptc1=6.39e-3 ptc2=1.17e-5 pvc1=4.09e-4 pvc2=4.71e-4 pt='temper'
.param tfac='1.0+ptc1*(pt-25.0)+ptc2*(pt-25.0)*(pt-25.0)'
r1 n1 n2 'rsh*l/(w-dw)*(1+pvc1*abs(v(n2,n1))+pvc2*v(n2,n1)*v(n2,n1))*tfac'
.ends rpod

.subckt rpodrpo n1 n2 l=length w=width
.param rsh=153 dw=-0.102u ptc1=1.42e-3 ptc2=0 pvc1=1.48e-3 pvc2=-1.24e-4 pt='temper'
.param tfac='1.0+ptc1*(pt-25.0)+ptc2*(pt-25.0)*(pt-25.0)'
r1 n1 n2 'rsh*l/(w-dw)*(1+pvc1*abs(v(n2,n1))+pvc2*v(n2,n1)*v(n2,n1))*tfac'
.ends rpodrpo

.subckt rnwod n1 n2 l=length w=width
.param rsh=1030 dw=1.418u ptc1=5.10e-3 ptc2=1.29e-5 pvc1=1.62e-2 pvc2=-5.82e-4 pt='temper'
.param tfac='1.0+ptc1*(pt-25.0)+ptc2*(pt-25.0)*(pt-25.0)'
r1 n1 n2 'rsh*l/(w-dw)*(1+pvc1*abs(v(n2,n1))+pvc2*v(n2,n1)*v(n2,n1))*tfac'
.ends rnwod

.subckt rnpo1 n1 n2 l=length w=width
.param rsh=6.61 dw=0.04u ptc1=8.57e-4 ptc2=3.01e-7 pvc1=2.83e-4 pvc2=-3.15e-5 pt='temper'
.param tfac='1.0+ptc1*(pt-25.0)+ptc2*(pt-25.0)*(pt-25.0)'
r1 n1 n2 'rsh*l/(w-dw)*(1+pvc1*abs(v(n2,n1))+pvc2*v(n2,n1)*v(n2,n1))*tfac'
.ends rnpo1

.subckt rppo1 n1 n2 l=length w=width
.param rsh=7.03 dw=0.04u ptc1=8.52e-4 ptc2=3.01e-7 pvc1=2.67e-4 pvc2=-2.97e-5 pt='temper'
.param tfac='1.0+ptc1*(pt-25.0)+ptc2*(pt-25.0)*(pt-25.0)'
r1 n1 n2 'rsh*l/(w-dw)*(1+pvc1*abs(v(n2,n1))+pvc2*v(n2,n1)*v(n2,n1))*tfac'
.ends rppo1

.subckt rm1 n1 n2 l=length w=width
.param rsh=0.085 dw=-0.02u ptc1=3.27e-3 ptc2=0 pvc1=0 pvc2=0 pt='temper'
.param tfac='1.0+ptc1*(pt-25.0)+ptc2*(pt-25.0)*(pt-25.0)'
r1 n1 n2 'rsh*l/(w-dw)*(1+pvc1*abs(v(n2,n1))+pvc2*v(n2,n1)*v(n2,n1))*tfac'
.ends rm1

.subckt rm2 n1 n2 l=length w=width
.param rsh=0.085 dw=-0.02u ptc1=3.29e-3 ptc2=0 pvc1=0 pvc2=0 pt='temper'
.param tfac='1.0+ptc1*(pt-25.0)+ptc2*(pt-25.0)*(pt-25.0)'
r1 n1 n2 'rsh*l/(w-dw)*(1+pvc1*abs(v(n2,n1))+pvc2*v(n2,n1)*v(n2,n1))*tfac'
.ends rm2

.subckt rm3 n1 n2 l=length w=width
.param rsh=0.085 dw=-0.02u ptc1=3.34e-3 ptc2=0 pvc1=0 pvc2=0 pt='temper'
.param tfac='1.0+ptc1*(pt-25.0)+ptc2*(pt-25.0)*(pt-25.0)'
r1 n1 n2 'rsh*l/(w-dw)*(1+pvc1*abs(v(n2,n1))+pvc2*v(n2,n1)*v(n2,n1))*tfac'
.ends rm3

.subckt rm4 n1 n2 l=length w=width
.param rsh=0.05 dw=-0.02u ptc1=3.18e-3 ptc2=0 pvc1=0 pvc2=0 pt='temper'
.param tfac='1.0+ptc1*(pt-25.0)+ptc2*(pt-25.0)*(pt-25.0)'
r1 n1 n2 'rsh*l/(w-dw)*(1+pvc1*abs(v(n2,n1))+pvc2*v(n2,n1)*v(n2,n1))*tfac'
.ends rm4

.ENDL RES
