* LTspice Encrypted File
* 
* This encrypted file has been supplied by a 3rd
* party vendor that does not wish to publicize
* the technology used to implement this library.
* 
* Permission is granted to use this file for
* simulations but not to reverse engineer its
* contents.
*
* Wurth Electronic eiSos Germany
* EMC and Inductive Solutions
* www.we-online.de
*
* Date 2012-03-19
*
* 
* Begin:
 B8 5F 4F 83 0A 4C FD 55 7C 55 04 53 D9 D9 A6 60
 A0 F0 B9 63 2C 46 E6 BC 8D F5 A4 C5 BA E5 0C 6F
 1F 79 1B E1 0D E3 90 CA FB CF 0B 43 C1 8D 30 F2
 E5 9C 1C 60 E1 03 4D 7C 7D 7C 81 9F 07 42 2B 31
 A8 AD DB 2A 49 A3 B2 81 44 BB DF FB B7 17 00 6A
 0D 68 2C 8C 2C 8B 69 44 EC 35 04 95 7B 9C 73 66
 BB 0C 08 50 21 06 08 27 02 5F B9 19 AF C4 3A 1B
 FD 98 F5 41 B1 73 A9 F6 1A CE F0 72 4A 68 0C 96
 CD FD 9D 7F D5 A5 F8 F8 5C F9 A5 D2 03 9C 1C 43
 F3 6F CB D9 83 1E 10 CA B4 A0 E6 81 1B 77 9B 58
 03 7C 5D 92 E2 4A CB 69 65 37 8D 65 D1 BD 0F E3
 F0 2E 48 59 53 64 66 4C 1C D6 5A 95 56 D6 C8 B9
 33 74 E9 5B 78 34 21 47 A5 E8 B5 1B 0C E0 8A A9
 0A 08 C0 79 54 AC 1A AF F2 7E A5 F4 16 BC 3F D1
 29 E2 72 1B CE C7 07 DD E8 48 62 99 FB 0B 8E E2
 7C 01 B5 43 F9 8C 8D 32 3C 6C 7E 97 6D 5C CF 6E
 78 F2 E4 E4 EC 15 2A 26 ED 7C 8B B6 A2 7A F4 38
 88 B5 77 B5 F7 93 09 24 DF EA D7 56 E1 EF 54 67
 8D 1D F8 1D D3 35 7E 1E 21 32 F6 95 E6 EA C9 B2
 53 B2 8B 8F 14 5C 05 8E 4A 7C DD 97 0E 41 BC CC
 73 B6 98 36 83 D8 D9 33 AD 95 B0 91 4E C5 74 C9
 F9 12 08 44 7F 1E C0 B2 72 44 7A 9C 25 93 2A B0
 0B 6B 1E C2 EF 11 40 89 0A 73 DE 31 3F 2E 87 7A
 0F 67 A1 78 BE E5 06 31 00 02 87 23 4E E3 E0 B8
 51 A3 A9 5D B8 3A 60 F3 71 55 7E 31 30 15 92 33
 B0 A0 E8 2F 11 F6 71 93 EC 5C B9 76 4C C4 E2 F6
 26 8D AC 2C 94 3D 3C 59 5C FF 2C D1 31 15 63 B6
 EC 36 81 12 C3 CA DE 28 50 FA 8B F1 0A A7 2D FF
 74 BF 61 1B D8 9C 46 90 DE 26 E8 08 26 43 21 65
 1C 67 86 15 FC EB C2 9B A5 B2 0A 2C 72 C0 71 DD
 2B 2A AB 46 39 0E C1 41 84 B9 C3 D8 25 CD 03 A0
 DA 1D 8D 97 D8 53 77 CB A1 8F E7 D2 89 1F 25 95
 86 37 BB 1E D2 10 0C 8F C5 8E BE 57 C7 D7 5B B4
 92 DE 14 9F 6A 3B C7 89 35 F5 56 32 F7 4B 9F 5A
 A7 31 5A CE 69 B0 7A 75 FC 9F D6 2A C7 A9 5A 37
 A6 69 1B 06 2A 3E 25 4D 59 89 F2 D8 59 F8 3E A0
 C1 51 B5 5A 19 42 FB AC ED E0 38 02 AE 83 9C 7A
 33 B2 E9 AB F5 C5 DB 69 83 80 72 AD E2 2E FF B5
 14 9D A5 B9 37 5C 42 FA EF 11 DD E8 8A B8 67 C8
 9B 9B 89 A4 2D A1 76 3F 66 6D EA 04 65 92 95 D1
 C5 A6 52 82 55 27 15 D6 29 1E FC 9E 3E FA 09 35
 6A 2C 30 7F 76 1A B9 CA E4 AF 5D 26 1B 1F FB 3B
 FC 7D 4C 72 FB 44 F9 34 40 DA 9B 89 60 00 70 0B
 0C E3 73 CC 5E B5 0A E3 D3 A2 8F 92 B1 8C 1A 75
 29 AA 00 64 31 A8 4A AD 33 C9 90 0C 01 93 F5 40
 65 6C DF 34 A5 78 43 85 CE 67 18 83 7B 25 C0 F7
 84 0D AE 8B B2 55 A8 74 9B 78 23 25 10 D6 8B 5A
 34 6C 64 4C 4A E4 91 53 96 84 2F 88 64 8A 89 A7
 AE FC 6B EB F7 6E 51 C9 0F 59 1B D2 57 4A E3 DB
 38 55 5A 66 0C FC 11 2D 16 4D 1E A0 44 D5 12 9D
 F6 EE 61 50 95 3B D6 F3 AF F5 B1 54 01 CD 83 60
 32 50 60 B3 97 4C FA BF 60 23 F3 48 A0 D0 39 7B
 5D F1 60 8D 9C 00 F9 FC 8C B6 F7 0D 12 2B 5E 48
 A1 5C 0E 3F 53 9C 41 DD 18 3B 3A 9C C3 03 38 1D
 89 B5 45 0D 01 A2 73 A6 A4 98 1E 40 F8 59 A3 E1
 27 2E 25 E4 AA 75 5B BA 05 A3 6B 5B DE F3 9A 7E
 35 E2 43 78 3C 9F 00 35 22 2D 9F FC 55 E5 36 4E
 C8 E6 D9 14 C4 85 CC D3 0C 66 0E AC 16 3C 76 14
 39 83 5B BB F5 D3 B4 C1 82 7D A7 8F 69 03 A5 F8
 36 C8 4A C9 FF CD 55 6F B3 E2 7E 9E AC D3 F4 E8
 E8 9C 75 CD 14 59 E0 7F A3 5A 59 42 E9 4C C0 54
 C0 C8 82 E3 4D 75 AF 41 2F 8B 4B 73 01 AE 7C 16
 A4 ED 8A E4 86 9F 10 74 E7 AA 55 04 A7 AA 3A F9
 A4 5F EA A9 DC A2 3B 00 03 C6 57 EB 47 E6 67 19
 F0 1F 9C 2A BF C9 3C 7C 72 45 8B 50 C1 61 40 F7
 B4 2E 1F 98 1A DC FD F3 0E 1B 15 15 06 D7 B0 DA
 EE DB E2 9E 7D 09 A3 3D B7 A3 E5 EB 50 55 6E 8A
 39 CD 26 08 1C C8 53 FB 0B 1E AE 76 23 80 C1 CD
 9C 68 FE 72 52 A5 3E 49 27 EE 8D 08 F2 A3 33 FD
 5A 4D B1 E2 24 70 67 10 A1 09 CD 27 B7 A1 92 7D
 A4 21 08 96 EA D2 9D 75 08 CB BF 64 74 41 92 64
 8B 26 3B 75 55 98 F9 73 24 DB C8 B1 D1 C6 EE 60
 6E 4D 5E 66 21 E5 00 77 E3 9D C0 87 0E 35 B3 DD
 83 40 09 51 2F FF 35 49 3E D8 70 02 56 6D BA E7
 57 B9 4A 62 5D 70 C9 E1 44 4B 79 16 94 EE E8 88
 60 BA 9C 13 03 A0 74 40 DC B2 9D DC D6 D2 C7 21
 9C 25 C1 1D C3 DD 3B 92 80 E6 F7 D5 D4 A8 B1 CB
 3C DA 97 10 33 42 C1 76 38 BC 67 46 95 B1 FB 3D
 FE 6B 7E AF 3D BF 11 A0 88 E2 37 B8 B7 39 9F 76
 47 71 E0 F1 BB 4F 31 5D A8 4A 82 33 20 3A 24 5B
 60 7B 78 AE CB 12 8E D3 DF 10 F2 00 71 E2 21 01
 3E 4D 32 BE 1D 5E C6 48 92 D6 AD D3 9D F1 45 D6
 91 2B 45 0A 0A F8 EC E5 B0 8C 8B 82 82 AC 46 2B
 DE 42 B2 DE 14 B7 06 B6 74 B7 01 A6 4B 0B DA 41
 98 BE 0B 5B 0B 43 F7 06 61 3D DB 90 AE AE F0 F5
 9F E4 8C D3 01 1B C0 27 67 1A 79 4F 2F F0 CF D0
 EE D4 DF 47 A2 A2 7B 5A 6A AA 13 85 B9 73 90 30
 5B 6A 81 3B BB 54 3E 93 BF 43 D3 43 6A 42 0A 98
 E3 7F AD 93 65 CD 82 7C 9A 08 F4 C2 E7 31 35 F2
 C8 5B 73 C4 F6 13 C3 4E B6 82 5F 5E 83 D5 23 E8
 23 B6 B0 0A 4B 44 CC 42 2A 1D 1A 2F 8B 9F F1 B5
 CB 3C 40 18 CD 92 4A 1B 04 5C E2 56 37 90 EE E7
 88 05 1C 18 7E F5 BB 55 B7 0C C9 F3 EE 82 A0 74
 7E 3D 47 F1 E3 EC 9E 7D 4D 5D 0A F6 96 27 13 6C
 66 C4 3D 12 1E F8 A3 82 F1 E5 29 AB D5 96 07 2E
 B1 BB FB 77 E9 A8 7B 56 13 84 B8 B2 CB D8 45 C1
 BF 22 63 2E 3B 4D 97 6A A8 B9 89 5D DA 99 20 1F
 79 B3 53 45 8F 40 F8 C8 D1 64 86 01 A7 05 82 DD
 6B 02 39 20 94 F8 A4 0C 23 67 5C B3 84 B7 C9 E2
 2A 26 EB 04 FC 36 4B 7D EF 86 B8 8D 17 B3 F3 0C
 85 29 B4 2B B7 09 17 40 09 3E ED D1 3E 19 4A CC
 CC 82 F5 3C F0 35 C9 A4 CC BD F3 00 63 FD C3 66
 67 0C 31 C8 39 C0 12 3A 23 CE 7D 6F 84 BF D6 13
 64 F8 04 FC F7 A0 DA 16 FA DE 85 F5 E1 E2 20 52
 56 C4 A2 A0 D6 8C 60 24 B1 3D AF E0 78 E5 4F B5
 E9 6C 3D DF D0 18 06 FF 1E E2 D3 62 25 27 8D 30
 20 05 B5 E2 F4 D2 21 3A C9 C2 A1 55 2F C4 79 93
 EB 35 F1 3B 71 25 90 AE BC FA 31 17 DD 51 17 FB
 F3 7D 34 A8 72 E3 F0 33 6F EB 46 49 25 6F 30 E4
 67 58 5E 83 5F B9 21 F6 0E 39 62 CD 68 40 A0 9E
 A7 85 90 A4 AF AA 0A 73 1F 0D A9 35 41 00 B3 47
 8A 19 09 7B 8B 32 97 B4 D7 E6 03 B7 A8 5C BC DA
 D4 A9 0E 80 00 5B CB 80 26 13 FE 40 73 FD E3 23
 23 A1 58 9C BC 6C 78 A6 3E 31 B3 D9 55 47 CE A2
 8C BB 90 43 E9 6B FB 27 80 DD FB 59 7C 01 E8 8A
 5D 87 1A 0D F7 82 C4 55 69 71 59 84 2B 59 90 AB
 11 E0 D7 28 27 32 39 9C 69 0D D2 18 CB 46 38 AD
 5F 4C 00 8E D6 F8 6C 17 5C E4 47 70 0B BC 7F FC
 19 8B 7C 32 14 99 02 E1 FA 86 7E FE D3 46 5B 6E
 87 EA 59 F3 75 A5 E4 94 24 53 AC 2F 9A 00 79 15
 59 6E C3 2C 99 76 92 5A B5 AD 89 BF 7D 7B 27 47
 4A 32 64 F5 DA C4 97 E1 76 1C 56 CA C6 EC 0F D4
 94 85 5D 67 EB 90 04 30 F3 02 46 1A 73 2D 0D DB
 C3 26 05 C9 09 DD 5D A1 1D A8 CA 38 3D C5 1C B1
 AB 4D F2 46 D5 8E 6A F0 D0 1C 23 96 7C 69 B9 31
 53 BF 69 00 86 C2 19 73 D8 C8 C2 C9 5B 11 5F B9
 0F 42 BD 09 1B 88 D8 98 EE BF 54 C2 DF 12 9B 32
 66 C8 8F D8 D8 EB 25 AB 78 97 7F F7 9B EA 91 EF
 D4 56 CC 4B 4B CC 29 BD BD A3 E3 21 50 6B B9 E7
 67 EF 02 5E 6B 6B B0 D4 4A E4 D5 1D E9 A0 6A 1A
 FD B2 B5 3C 14 DC E0 D4 0C 47 FD 2F D8 39 B9 EA
 76 AC 14 8C FC 9E 2E 19 74 4C 8D 80 CF 5F B8 93
 C5 3F C3 72 8B 3E 98 41 72 6B 13 9D 1C 52 82 21
 96 EA E2 DA F5 6B C5 17 79 EB 10 BA 91 8D 8D F6
 C7 75 10 5D 00 22 DF 83 6E FE 3D 0D 43 B1 A7 2A
 9D 15 8F EA 12 F8 C4 31 87 8C FA 01 BB D3 99 FC
 F2 03 3B B9 B3 C2 CF 55 22 A0 88 B9 EF D4 79 65
 95 6B 37 51 92 C1 39 65 FB 63 57 C6 E8 D1 BA D8
 6B 19 AD 8C C3 67 A3 C4 0E 98 53 A4 83 AB 46 DA
 1B 38 67 8E 31 C6 73 77 66 0D 91 17 6F AD E4 C8
 D2 9E EE 96 6E 71 66 F3 41 56 5F 24 1D 30 87 A5
 CC CB 59 BB 6A 2E F2 BC 8A E3 4C 4B 3B DD 0C B7
 F5 2A 90 9B FC B1 B7 92 1E 74 3C 84 D4 2F 15 66
 3B 6C 74 AD 3A 76 38 95 16 66 BE E0 D8 11 29 3B
 CF A9 16 DD 1E 36 51 11 3C 3B F9 42 E1 C5 58 33
 74 6A BF C6 0E 25 B5 0F 4E D6 8D D1 87 64 65 B6
 9B E8 71 98 E5 23 73 24 0E ED CB A1 85 C6 40 B1
 E9 18 8C 90 CA 20 35 C9 C2 24 68 AE 60 9C 18 4B
 A3 17 9C C9 F8 30 C2 BB 49 E2 D5 E5 86 BA 7F 2C
 2D C3 05 17 1B 43 DB 13 D9 F9 D9 F7 A8 2B 70 52
 09 A2 90 C9 AC 98 87 69 70 EA 78 23 D3 B4 CA 6A
 18 26 8A 87 15 D4 C5 EA 49 FC E2 83 C8 A2 C3 73
 EA 29 C4 A6 71 08 15 E9 76 55 91 21 44 FF A5 B4
 44 1A BF 1B 68 65 20 46 88 59 BE 79 23 AD 74 44
 92 E7 8B EF 49 25 69 6B 26 93 E1 E1 CA 87 3F D7
 28 33 B1 C2 CB D8 66 AF FA D4 83 E7 D0 A4 A5 83
 56 81 C5 13 E3 5A 3A 12 5D 4A 5A D7 B4 56 27 73
 4C F4 42 BE EE B7 00 86 1E 2C 8C D1 C3 DA 74 FA
 4E F4 DA 53 47 58 6D D4 BD 75 4B 11 85 3B F3 42
 D2 33 91 86 8D 13 45 99 A6 3B 82 0A C8 BF 08 B5
 CF 2D 12 8B EE B2 9D 89 37 45 56 5B CE 7B E7 95
 0F F4 AA F5 9E 24 05 10 C2 2E F2 41 7E 47 97 63
 D5 FD 6E FF 2E C4 DA F7 C4 38 F0 E6 79 97 52 7B
 8E 9E 53 09 CC DC E8 11 3B DC 54 4B 3B D5 23 2B
 22 2A 65 40 08 A7 09 BE E1 CB 57 30 1E 2A D6 C4
 02 0D BE 30 E0 98 C4 8B 6F 29 C7 6F 5B 04 05 B3
 EC D7 3D B5 9E EF 16 F5 27 EB 36 69 8E FF 49 9C
 D7 37 3F 33 72 01 87 03 A2 84 61 47 59 9E DC 2D
 73 8A 36 9D FD 88 95 09 68 41 E9 90 7D FD A9 93
 7E 30 32 C2 20 F1 1E 14 84 54 5F 78 58 5F 2B 12
 CA 3D EC 56 4B 6D 44 F0 4D 1C F0 A7 4A 53 15 D7
 DA 0E 2A 02 72 A7 AF 24 BB 50 6A 49 37 BC E0 20
 2D 1B 0E 2E EF 18 29 CA EE BE F4 A0 0A 0B 88 77
 8D EA 04 6F 70 FB 64 9C ED 76 D2 48 DD 54 B9 F9
 72 28 44 06 4C 92 3C 7F DA CD D3 D0 2C 0C 31 20
 16 32 F1 BC 46 4C F1 CB D4 7F 0E DD FA 10 51 9D
 87 EC BC B9 D6 4D 18 D4 1D B1 B7 BB 90 DF 50 DE
 C2 9A D3 72 3E DC F6 78 A7 BB AE B9 2D DC 18 92
 D4 60 B0 1D A4 60 15 02 AD 8E 59 5D F9 B5 24 EA
 21 C4 26 B5 59 4B 42 C9 3B F9 29 1F BF 3E CB 13
 0D 14 BF 82 E7 17 E9 0B B0 66 B8 93 3D C4 4F 79
 0B 92 0F FA C2 DA 2A 9B D3 2F BC 03 25 61 31 C0
 F1 BD E3 A4 54 DB 76 55 BE 99 05 7D 2B A0 95 19
 73 0A E3 5E D5 F8 61 91 75 91 76 04 78 09 87 D9
 09 CC 6B 82 3D AF 26 7B B4 35 25 55 16 F7 9E FE
 0A F8 20 96 27 4D 5F D9 9D AF 9F 7F A7 B3 E0 14
 4C A3 D2 51 98 FD 1A 1D D0 49 48 54 20 B0 2E E0
 F1 99 B4 64 9C D5 CA FE 4E 62 EE 6B D7 C8 BA 0F
 FF AD C8 B5 EF 69 D1 32 2B B9 15 B0 A9 4B 7C 33
 4B 7E 48 58 FF 7A 79 AB 6C 53 AD CD 9D 04 54 8A
 83 55 09 D9 4D 52 54 16 3D 05 B5 CC A5 20 8E 79
 B6 F0 14 3E 31 D6 01 6D 1D DD 81 72 D8 E0 C9 06
 AA 93 6D 1A 05 D9 A4 45 8E E6 63 E3 EC 4A 40 BD
 06 7F B4 C1 A7 FC 5B 91 D3 A7 5F 10 FD DF 76 A2
 29 71 73 BB 46 DE 33 6B 2A C3 A2 0D AC 06 5A 56
 D8 9E 49 BB F6 CF 56 CB DA D6 27 3F E5 4B A4 CB
 BB 2D D8 53 23 38 F9 3A BF D7 21 15 00 BA 51 B1
 78 06 A9 E8 8D 24 0F 61 12 E0 8A F9 F7 5E 0B ED
 AC 4D 2D 66 BD 4B C9 29 56 D5 C0 40 16 6E 70 65
 5F F7 4B A9 C5 3C DE EB E9 7A 2D 68 9E 87 96 F8
 07 C6 19 AA DB 21 73 A3 C1 A6 C6 D9 97 48 F4 E8
 AA BC FE 02 B8 AC CC 69 A0 95 98 5A B7 FE 21 29
 0E E4 AE 49 76 88 23 80 E6 F9 89 E3 86 2E 93 50
 38 E7 48 AE 62 45 F5 E1 0E 3B 83 91 4C 91 B9 BD
 3E 16 94 7A B1 1A 36 18 70 66 46 03 3A B0 71 62
 D0 95 42 D1 77 61 B4 AE F1 29 7E D3 BE E5 4C 85
 32 FA 63 72 B6 61 51 44 83 AC 4A 76 8E DC 5A AB
 40 03 3D 61 30 4A 23 CD 22 31 DF 8D 1F 8A A3 9D
 A4 12 96 41 D2 DB E7 EC 6F 65 4F CB 7B F6 4F 1E
 2B A6 6D 7D 52 20 81 16 E8 30 2E 20 90 91 A8 C1
 6F EE FC CD 6F B2 C5 29 9E 59 27 90 70 E7 22 D5
 AE FB 3A EF D2 BA 73 BF 99 81 2D 00 33 FF EE 5C
 6B EF FB 40 A3 DE 15 EB CA 31 4F ED EF D9 94 A3
 6C CC A3 1A 35 39 71 10 1E 06 95 44 94 CB 28 D6
 CB E4 47 09 E7 5C A2 1F 6E 72 5B 44 4E B5 17 F8
 E4 BB D0 E6 03 5F FE F8 B0 15 91 BF 57 FD 75 7A
 24 89 15 64 97 F3 5A 78 70 9B B4 62 72 CB BB B0
 AA 18 37 78 46 C8 7C CF 22 64 66 85 9E 32 30 E3
 0D FF 38 47 E5 1F 7C 3B 88 BF 82 94 2D FD 50 6C
 46 B2 D1 F5 46 96 F8 B3 C2 A8 60 6B A4 05 60 21
 46 AF 77 7A B7 A2 52 89 8E 4B FF E1 8A DA 3A F5
 FB B7 87 05 4C 8A 9B E1 28 CA 9B B9 3C D4 1B 50
 F9 8C 7B 90 56 3B 85 18 57 CB DC 05 8F 0E E1 C0
 96 28 64 C4 60 1F 0F 07 2A D6 C4 7B 61 8F E4 1E
 F9 C0 D9 A0 33 4A 52 A9 69 BE 41 6D 5A 57 E4 6A
 E7 6F A6 57 7B D4 92 F3 98 73 1D B7 24 F8 61 07
 81 D7 9E 4E BB 68 21 A4 E6 AA 0C C9 E4 E5 30 14
 04 55 4E 2D A3 80 93 52 5A 61 56 33 4B 26 06 9F
 BA 53 5F A2 AF 31 92 D2 05 B6 C2 87 C8 B5 22 AB
 A4 0E 3C 5B C5 8C BE A4 EA B8 9A 57 93 6C 5C 09
 B9 3E F4 C8 58 6B 98 00 59 5A F2 91 90 8C 98 0F
 4C 48 58 8C 20 E7 A8 2F 81 E3 08 6A 4D 34 73 43
 D0 E1 2F 87 58 AF 8F BD 9D DC 8D 19 07 2D E5 B4
 30 24 35 E0 F3 C7 5F 5C D9 CC D2 5C 0D 47 7B 64
 61 11 6A AB E1 DC 61 65 35 5F CE 03 E1 92 3E 5D
 9A 47 89 77 87 B6 00 79 2D 65 0E 7E 50 A1 72 E8
 74 41 B7 14 E0 11 2A 3B DF 58 8C 51 30 36 67 0C
 04 67 37 FC 45 5D AE AB B1 71 65 3A F9 C9 B3 A1
 1C DA E3 89 ED 8A B4 82 E8 F7 42 B2 BF 49 73 C5
 C9 53 D4 24 B8 6E 8B 2B 1B 04 70 CA E5 50 79 EE
 05 C5 16 4E 7E 4D 71 51 99 6F 93 6B 17 BC 40 C7
 7C 0F D5 58 1E 49 F4 B2 DB CF 3C 7D 76 D7 C7 7B
 7B 45 2F B4 F6 19 DA 3A 27 28 93 5A 78 B2 FD 43
 A2 67 98 23 B3 58 78 79 6F 74 1E 8C 74 8A 67 62
 29 49 41 19 44 06 60 28 33 96 D3 BF 17 CD D6 95
 C5 63 92 15 A6 8B E9 6D 4C 36 D1 31 47 42 DE A2
 CB 1D 7C 82 B7 0E 3C 0C 44 7F 04 98 B1 77 F3 28
 96 CD 55 55 90 71 CB E9 FD 9C DA 42 09 68 93 27
 C1 18 B9 56 EC C4 9F 8E 28 F0 E3 58 C8 B8 53 1A
 0F B3 39 FE 4C 9E 3F A1 CF 48 5E 3F ED 0F B3 3A
 05 BC 41 5B A7 20 B2 6B 3E 61 D3 45 19 B8 1B 52
 6D 60 CF CE D8 78 E3 19 65 6B 1D 2D 82 8F B9 D0
 28 DF 6B 04 42 0F 40 C3 C7 27 D6 C6 6A D2 36 D9
 66 89 3D BD EF 9D E2 42 95 8F 81 A0 54 D0 24 37
 6D 2A 7B 0A EE BE 84 02 42 4B CD 9E D0 7A 89 54
 49 9C 55 9A 5A D7 B1 25 4B 4D BB EE 7C 5E 27 40
 22 40 08 CA F7 84 23 82 10 A2 AE DC 61 AF 34 A3
 D4 C6 54 81 A1 FB 67 26 01 18 25 5F 2A FA 4D C4
 F0 76 E3 A0 B0 A6 91 63 67 0C 94 6B C8 07 52 06
 18 34 36 34 E0 39 EB FD F9 04 90 8F DA 58 08 46
 22 12 69 D9 21 FD FB 82 17 46 19 FB 48 58 52 3B
 C5 37 A0 65 6F 7F C5 CB 02 2F F9 F0 D7 AC A2 75
 60 29 0C B1 AE AE 5A 6A C5 FE A0 53 B1 8A D2 96
 18 30 B4 6E 19 E9 78 50 00 4A 7A 5F 38 DA 93 AF
 D8 55 D1 8F 0E 04 76 00 E7 14 E7 39 F4 A7 DE 96
 1A E9 A3 B8 86 D7 AC 7E 05 64 6D 19 D6 15 1F 15
 CC 76 DB DE 58 4C 2B 72 5B 9C 62 35 94 0A 24 78
 C2 33 80 9C 70 B0 F7 F5 24 A5 41 86 6E AC DC 6C
 AC F0 FB 4E FA 9B 3F 71 3F 5B 2A 92 9D 56 53 9F
 45 E0 1E 2C F3 25 87 AD AD 60 42 B3 51 E4 03 27
 3E 27 31 AC FB C6 61 AF 98 5C 98 48 FB 59 8A D9
 C4 06 DB FF 33 EF BB C2 49 C6 F0 40 31 EB BA 93
 45 73 CF 43 7B FF 05 5A 7E D4 8E C8 E3 B0 2E 27
 2C DC A0 37 E9 4A 80 15 A2 E0 94 FB 20 59 43 AB
 9E E9 F6 E4 44 8B DC 53 F7 42 87 6B 9C 8C 92 19
 2A AB 5E A0 36 10 FD BD 01 44 67 6E EE 32 E1 2E
 FC 01 18 60 2F 4E 09 AE 98 EF 74 89 B9 27 5B 78
 4E 27 87 9C F7 2B 5B F6 E8 21 93 93 77 C5 03 76
 46 6E 7E 40 13 67 97 FF 0E E2 72 53 20 F4 A4 30
 AA D0 3C CF 63 21 33 77 7E 47 5A 05 95 F2 54 46
 AB 46 80 5F E6 25 A5 D4 BB 26 4F D9 C1 14 60 E8
 7D 54 A7 27 95 8A B7 4C 18 45 26 3A 2B 5B 61 4F
 BF BD 3A 83 12 3C 43 E9 A0 C0 4E 8F 63 20 AA 89
 93 49 F4 71 D1 14 6A 6A 90 78 34 31 53 86 18 5D
 F4 F2 B9 DE AD ED E5 F0 F0 6C BA 3B 97 C5 AF 7E
 A3 BA AE E3 B0 EE F2 69 76 4D 20 62 E7 7D C0 19
 40 AC C8 F9 58 EB 66 02 B7 4D D1 36 F3 B8 83 9E
 E2 6A 5C 7F 59 44 38 D3 3B AA 37 08 11 B9 C7 F6
 EA D0 F6 AF E4 99 45 0C 81 03 59 88 FD 73 14 C9
 3B 18 60 18 AD AF 8C D8 B7 18 24 D4 5C 7B A9 D0
 AA 30 3A DA 11 39 A1 70 CA 79 33 6E 84 78 43 6D
 42 F6 E7 F1 0A 2A B4 FF 58 2D 60 D4 BE B4 DE BD
 E5 9B 54 2A A3 A3 71 12 12 6A 05 56 F0 17 52 19
 26 C3 C1 2D 35 FE 75 8E FC 94 B3 A4 8E 36 BF 8E
 40 39 DD 70 C5 8C 77 83 E4 5B 30 F3 F5 7B 99 F9
 11 AC 4E 55 B9 6A B6 5C 43 E2 B4 7A BF 76 7D 3F
 AF D6 11 F5 29 10 0A E8 F0 E5 1F A7 73 0D F7 A1
 65 E7 1B CC B4 ED E6 65 F0 C4 A7 CC BD 7E 9A 64
 F9 9C 0B 13 CD 3F D8 CE CC FF 53 2B 7B 44 7B 46
 3F 1F D7 1E 8B 9E 22 C1 9B 7A E0 09 57 C5 95 64
 D4 51 46 F8 CB 70 3A 29 17 C2 5C 25 9E 0A 2C D4
 A5 47 44 97 AA 05 25 6E 9F 14 EE 25 99 32 4D 09
 8E 7D A3 27 05 89 62 A5 AC C4 87 23 21 FC 8C 46
 DF EE 79 A5 9A 43 7C 7B 62 CF C6 70 67 3E EC 78
 B7 20 37 7C 52 C5 71 9A 49 06 FA DF 05 2A 03 CF
 F0 3D B4 B8 59 80 3D 0F 7C 46 DF 5E F8 4C 08 DA
 90 A9 1E 35 83 C9 8A 04 37 FB 9D B3 54 96 10 67
 27 35 C9 65 48 E8 00 CD 1B 4E 70 7D 65 90 C7 D0
 F5 18 3F F2 3E 1C C1 B0 A2 12 71 71 65 79 75 26
 51 CA 9C 11 00 FE 29 1D 6D 63 68 2E 95 D0 98 F5
 6A 9C 24 93 A9 02 F3 78 A5 D4 4A D4 1B B4 BA 17
 AD 37 A9 4A F3 41 29 66 AB C8 FA F2 64 8D BA E7
 08 4F EA B2 C8 1B C4 BC 59 A7 7D 62 34 6A 70 51
 19 59 00 75 5C 0C DC C0 23 43 CB 90 61 E9 16 29
 9E F4 6C 40 F6 2F 78 B8 D0 28 2F 08 7C 73 30 70
 89 16 25 70 8E AA F9 1F B3 8D 87 38 F8 E5 FF E7
 88 C1 44 96 80 6B BD 17 A3 AC 83 98 F6 FB F6 CF
 47 B9 07 0E 7A BB D1 E7 92 C0 21 35 5D 3B E2 69
 78 54 AA 04 6C 06 15 0C 73 B8 98 67 44 3F DA 7D
 4D 1B 67 92 79 A6 60 BC 50 06 5C F7 C3 A5 0A BC
 5A B5 8A 16 9B 40 FE FA 51 F6 6C 74 5D C9 CA 5B
 16 56 F8 6B 60 A8 18 BD B3 20 BD 65 A2 EF 34 B6
 5A FC 3D F8 C5 A8 63 D6 D9 8B 6F BC A4 D4 C0 3F
 D5 D7 6D 57 10 80 68 C9 F0 46 86 7E 30 60 09 B2
 FF 3E C3 23 D4 58 91 6D 38 4E 64 BC E5 CF A0 30
 95 72 22 01 4B 34 93 1F 4B 14 DE EC 41 89 26 98
 44 1C D4 F6 58 ED 64 6D E0 05 6D 43 5B 27 4C 23
 89 64 F5 40 B1 B7 87 C2 5B CA A8 04 50 D9 41 BF
 3D 6B 6F 7F B2 93 B3 A6 DE 6D 74 07 F1 34 C8 62
 6C 0B 17 57 FE D1 E8 73 17 8C B3 4A CE FA 08 3B
 8B 96 19 76 AA A7 C6 F6 5E 10 D0 37 9A 73 A4 F2
 3A CE 5E 67 B5 75 62 68 04 9F 2D CD F2 70 57 72
 61 C7 84 D5 DB D4 EC C6 AD 41 6A D8 A5 9D 96 32
 28 D1 6E 8B 40 B9 CB CB 27 F9 A4 62 2F 6B CA E9
 7F B7 65 CB 43 0B 07 C1 C8 D4 84 F6 71 DA 9A A1
 29 D2 C2 98 71 BB 10 1B 8D DF 7B 10 D9 70 32 A0
 16 63 AD D7 D7 60 33 25 BD 24 84 6F A6 A9 23 1B
 30 C0 AB E4 9D 9E 8D E4 3B BA A7 53 55 BF 62 8D
 AA C7 FB 2A 39 72 5B 0D 96 64 43 4C 09 64 23 54
 2C AC F3 B3 43 12 D4 AF B9 D7 26 57 4B F1 6B 2F
 A0 62 87 FE 04 DB 58 02 E7 F6 AF DA 9E AA 8F 6F
 36 15 9D 9A 74 B9 DE 65 31 08 12 37 23 98 65 20
 BC 6B 6B 60 3E 19 E0 D4 3C 52 FD AF 08 AF B2 53
 9C 32 2A 2F 29 87 F2 CE 2D D3 34 B5 E4 8F 7A 87
 5D B9 54 D3 21 A2 0C 20 E9 89 05 71 D1 22 99 8C
 FD 2C E3 88 DE 0B 77 9E 06 13 74 C8 39 00 16 49
 D9 3E 6A 20 66 C7 C3 A5 1E DA C1 2B 39 5B 69 F8
 F4 E3 C5 29 E2 BB 89 6C 5D CF 0A 26 0F DD 0E B4
 42 C5 DC A4 29 88 FD 12 2D 45 0F 1E EF F4 CF 27
 AB E2 4D 9F E5 22 B0 BF 52 78 A7 8B E9 2F 9E CB
 6A C1 BB 93 55 0C AF 6B 0C DA 9C 27 85 F1 AD 1D
 8C 6C DA 89 C7 FF 02 9C 1E 1B 25 89 12 15 FB 27
 34 D9 13 CA 00 C2 7D 0B E7 58 DE A3 4E 2D 3D 92
 89 95 A5 47 E7 80 42 EE 38 4B A1 35 26 BC D9 68
 83 C6 21 C8 ED C0 9A 84 1E 8F 1D 2C 4E 19 B4 C2
 18 DD 9D 26 13 A1 18 6A 2E A9 11 01 06 51 B3 EC
 8B FC 8E 93 40 33 97 5F C5 5C 27 41 81 E6 71 0B
 0B F2 FF 35 35 15 78 B4 3D FE 5F 1C 77 FD 5E 48
 81 4A C3 83 1A A7 0E 50 E3 53 DC 03 14 EF 75 E9
 FA 3C 88 62 8F 2D 9E 26 ED A5 9D 44 D9 CD 3E 57
 44 A5 D5 B3 62 0E C5 64 D2 59 98 17 8C 82 46 5C
 B2 71 DC EB B8 7B CE 48 9E 67 4E 77 9E 7A 9D 99
 80 86 7B 87 9A 46 F3 9C DB C0 3B 5B 68 86 E6 69
 F1 87 43 2A 10 D8 26 5F 12 FB E7 F3 4F B2 ED D8
 06 46 21 96 9C 93 18 81 62 58 2C 75 0D E5 32 43
 0A AE B9 7A CC 47 15 3F A3 05 D3 E0 F7 93 FF FF
 F7 00 BF 0B 25 B6 41 5C CD 71 83 10 7F CD 1E 11
 14 37 CC 4D C8 6F AF 74 E1 A9 28 FF BC 11 32 59
 86 E3 2B 82 10 06 8C AA C2 28 72 46 D1 CE 86 F6
 DC 74 42 CD 74 CE E3 2E 45 6E F1 13 AC 19 23 EC
 2B 90 13 25 08 5C 77 59 23 02 DC 0A AF 26 F8 FA
 1F 38 52 7A 4E 7E D4 47 FC 5D D8 47 05 2B B2 48
 F6 88 91 A6 03 F8 29 43 5B 46 53 B4 C5 63 DB 63
 E2 B7 8E 87 40 16 2B 93 D4 21 79 A4 7B 9B D8 6A
 C4 0E B0 29 0A D7 A3 0D 32 41 EE 52 02 73 CC 94
 72 45 04 FF 4F 4B 57 6B 31 2C CF 2A 34 30 31 53
 B6 6F 49 8E 93 A7 31 07 4B 2D 89 3D 4E 62 8A 6F
 A9 57 A7 2E E9 0C F6 70 E6 3A 51 2F E1 24 0B 06
 2A 3F 30 EF 71 75 4F 42 09 89 2F CB CD AA 95 87
 74 37 1F 07 29 88 39 32 1D 59 9F 10 B5 F3 77 BE
 6C C6 B0 B4 58 28 80 B1 6D 91 67 D2 2E 6E 44 5A
 97 A6 DA 4C F3 D3 DD CA 16 44 09 ED FF 58 6A 99
 53 7B 16 75 60 80 47 FA 75 CE 86 32 E4 61 E7 E6
 4B 40 CA 73 B8 1F 5F F6 59 CF 57 2D B2 D1 8F 58
 E6 45 E6 51 B1 12 6A 46 AE 98 86 8A EE 6E 0E 65
 C3 9D 80 3E CE C7 57 B4 56 4D 80 83 8A 41 2E 59
 1F 19 6F A2 69 A8 11 A9 CB 16 B5 A9 92 8E 16 00
 68 54 75 30 48 F4 60 DD 48 3A 73 82 94 D5 84 88
 77 77 93 9B 54 FC 35 1A C4 90 29 D9 2A 53 AE 82
 EF C0 5F 51 9B F0 D0 D9 BB 34 E6 E0 1F C4 04 55
 E7 AA B3 5A 19 6E 38 4F 74 79 AA B2 C9 05 C0 90
 BB 12 2B 8B F4 94 2D FC 68 3C 15 AB BC B1 90 51
 11 57 9D 68 C7 5D E2 30 B0 94 B4 BD A6 4D CC 94
 27 C7 9A 18 DD 68 F8 77 4F FF 3A F5 2A E0 64 84
 6D BF 53 76 02 F8 08 7A 87 F0 26 F6 18 12 F7 D8
 46 21 B6 1B 31 2C 1D F4 5B 5D E7 5D 16 A0 76 DA
 52 A6 CD 64 A9 36 88 37 94 09 5C E6 70 4A 62 A5
 B4 D5 30 AE 06 08 12 13 88 95 05 E3 B2 3A 29 53
 B5 B7 D2 A1 9B 24 5B D3 3C 73 C0 7B 5F 77 33 70
 17 35 82 33 7F 51 2C 6B FD BF 3A 82 58 48 4D 7E
 E2 1F D1 EE 79 A4 19 05 97 34 42 21 74 AE C8 F7
 B1 CF 60 30 EF 66 13 3C DE E3 E0 68 FB AD 9A F9
 9F 06 2C 01 C8 A8 DA 20 9E 30 9B 81 5C 0A 1F 21
 A5 70 18 00 CD 6B 29 86 F6 C1 9C 94 03 CC 2F D4
 75 16 BA DE 33 C4 60 A9 C2 19 32 9E 32 2F 7E BD
 41 43 93 C7 1B 43 54 E4 B4 1C EC B8 B3 29 10 41
 81 5D 7D B1 93 97 B3 8A 27 2B 60 ED 81 6A 95 4B
 9A DC 06 64 A3 26 40 51 33 31 FF 8B D0 6F 02 76
 FB 35 33 E6 3A 29 FA 9B 67 B1 72 BA 81 1C ED 88
 3E 34 53 75 C3 46 06 0C 50 1F 7B 25 EC FA 8F 1B
 09 B2 34 04 C4 9F 75 CA BA 9E 44 3E 84 7F 6F FA
 D6 04 59 A6 22 62 C1 79 17 6A D0 5D 28 58 D2 FE
 FD 33 AF 2B 9F 11 DE 43 92 7E AC 2D 9C FB 91 99
 16 F2 8D 5B C8 16 00 7C A1 77 15 EA D9 14 B0 16
 95 DE 49 C0 97 5A 18 DE 88 0B AB 75 83 D4 B8 2E
 4C 57 07 D8 C6 6C 61 DA 2C F0 8F C7 1D 5F AC F0
 73 13 45 B9 60 29 6D 86 EB A7 D5 DD 2A 97 EC A8
 93 28 B8 A9 D9 65 2E 93 91 E8 C1 2C 6E 56 A7 EA
 31 71 51 E5 8A 62 8E 6E 58 83 3B 99 D4 BD 18 97
 44 A6 ED 82 58 E8 2C B4 E3 72 6D EA 0E 96 13 30
 4F F3 00 49 48 AE 3B A3 CB 5A 54 00 B2 D1 63 D7
 71 57 D9 25 53 CF C8 3E F7 C4 56 9D 23 42 4B 94
 2C F7 2B 27 2C 8C EE 4F CC 80 1F 8D 5B 87 34 BB
 DC 94 30 13 8B 1D 53 1C C8 F9 39 DB 05 1B C3 33
 7B 0C FA 1A DE 2A F0 0E CF CB 87 94 76 88 D5 92
 8F E4 0E CC A0 ED 07 2B 59 F0 25 19 25 A0 00 38
 6F A5 4A FD 55 44 17 4F 28 2D 30 07 E9 4F 6F 26
 F4 15 01 D6 31 93 2A 66 F4 D2 1A 2B 37 9D CD EE
 74 70 34 E6 BE 23 B5 A4 FD 46 70 72 0B 2E 1A BA
 F2 DF 56 03 53 9B 37 57 D5 A6 6D DA 2A 10 EF EE
 7D 3A 93 10 81 C0 99 F4 C6 0F F0 2E 16 42 AF 46
 69 27 0D 81 D0 F5 16 D4 C6 4F 3B C8 17 AC 6E F2
 9D F1 B9 08 55 E2 AE 8E 33 23 AD C4 66 6F 97 29
 86 E8 55 FD 71 06 64 BD E1 21 DE 36 84 72 5D 1C
 26 93 8A 77 06 B7 A2 B0 33 AB 7E 69 EB 00 13 45
 69 56 0B 50 4D 0C 5F 9D 4E 45 E7 A6 BF C4 09 EB
 E8 E5 64 CA 67 EE 29 03 0F 51 78 E2 0C BD F7 0B
 E1 72 B8 B7 14 71 86 B6 8D BE F2 21 49 BC 94 07
 02 A4 1F 17 C4 55 FD 1E 23 B2 21 84 6D 31 C5 F0
 37 6A C4 1A D9 C9 76 BB 44 E3 82 EF 2D 4B 1E A1
 2F 8B 57 5F 6B DC 93 73 50 E9 A7 95 A1 85 8B B2
 1F 53 CC C6 10 4B B2 A5 E8 75 48 79 85 FB AB 0C
 9E BF 31 9D 1C 5E 08 23 6C 4F 69 63 EA F7 70 E7
 33 6F DB 23 C4 13 19 09 FA C7 60 85 61 2C 64 D8
 A9 3C 7F E9 CF 13 12 A1 25 10 9B 96 25 B9 12 EC
 06 F2 65 2E 44 A2 08 40 CC 33 15 86 B3 0B BB 20
 D7 4E 45 B1 8D 90 5C 14 7B 99 92 FC 98 6E 8C 0B
 57 F8 07 B2 4A AD 07 7B 97 9A 5C EA 49 73 20 06
 68 6B 29 F6 61 A6 90 C3 B0 C2 14 63 F8 85 A9 82
 2F 78 62 6E A6 53 A4 3B 60 50 33 1E B0 17 5E 44
 88 74 DD 14 CD 8A EB 62 6B 5D 0A 3B D2 63 BB 1E
 BB 82 0A 06 87 16 EA C8 81 51 CE CC F7 10 46 01
 DA 5F A8 25 96 30 BF 7C 4E 25 BB A0 70 D4 D4 EE
 29 17 3A 50 19 06 B3 07 A1 7F F2 EB A5 BD 79 55
 F9 90 F6 DC 79 75 B0 6B 65 86 51 CC 38 B8 1D F9
 76 18 EF 70 92 86 2A 27 6D BE 32 90 66 F7 31 41
 87 44 00 85 4B EF B2 80 36 BC 75 E1 43 9A 6D 34
 73 4D D8 90 23 EF D0 F2 3E 52 4D 94 F5 6F 6C 79
 D0 93 47 45 50 52 87 17 5D 33 93 E7 AA 8B BD 91
 F0 F3 E4 BF 97 CD 1D DC A1 1A E1 05 E1 9D 03 F9
 DD BC 6F 83 C1 1B 2F 2C 1B 4C 8B C6 7D C8 0A 39
 11 03 10 DD 0B BB 3D B3 93 45 BA FE 8A 57 75 75
 AB 76 35 40 74 2B 5D 7E 25 23 11 12 4A D1 B3 2F
 4C 4D 31 48 0D 2E 38 77 31 9B 7B 80 90 25 89 71
 85 A7 A8 20 A7 27 DA D6 C7 13 C1 02 6C D7 74 91
 30 43 D9 D6 43 7B D8 84 0C 43 8F 90 B6 D6 D7 18
 5B 6B 45 1B 64 F4 78 EF 2D 2E 27 1B D6 3E 00 AB
 AD 40 EE 7D 55 83 2F F6 03 6A 87 81 A5 8F 0F 16
 57 F7 B9 A1 97 9C 3D 05 25 F9 7C 25 1D 48 D6 0D
 B4 CC 85 6A 1D E0 E3 48 58 0A 02 6D 0C 28 53 0C
 3B CF 3B 1D 8C 22 68 F3 30 26 53 81 E0 B7 F1 38
 30 89 44 62 02 07 4B 41 01 31 EC 26 73 45 57 73
 72 BD 99 19 5E EE AD 3F BA 61 A5 A7 F4 05 E8 D6
 CC 89 2A 0F 81 04 FB 30 A0 E9 59 5D E6 2E 56 25
 0A 6C A6 0F 30 2B B3 B7 E1 AE CB 80 1F 90 B1 EB
 CB 1C 52 1A 19 7A FE 49 90 3E 53 7D 84 98 73 61
 E2 46 A0 89 38 BD D9 D8 E6 77 9C 60 AF 99 8A 4D
 D1 F8 11 02 F2 C8 DB BD C5 D8 4E BC D3 9F 91 BD
 5C AC 4B 70 12 7D 58 70 3A 57 53 60 CE 30 30 58
 DE 31 01 00 D0 89 83 54 36 4A 02 6B FF A3 46 F3
 02 09 B8 CC A1 A2 AE 43 24 64 EF 17 5D 6B FE 7C
 E4 59 06 44 96 1D 37 B2 A2 61 EF 95 C8 0D 68 0E
 0F 85 6B AB BA 6D 07 E8 DE BF 5D 95 98 28 1F 0F
 E3 3F 0C A9 7D A7 7A 2E D0 61 EF 5A CB 9F 6B A4
 5E 3C CA 07 B5 08 34 60 81 D4 78 D6 CD 2C 65 B8
 B9 56 6D AB 4C 8F 77 19 27 1F AB 43 BE F3 6E 72
 36 A7 2F B3 57 9C 50 C7 DD D8 8B 6B D3 AD 63 4B
 69 56 A6 0A 0B E6 D2 07 33 93 EE 0A 0B 59 33 AE
 CA 0E 23 BB FE CD 8B 98 18 ED 4F 32 AE 55 CA E7
 DA BA 3B 6E 78 00 01 BB CB AC 17 19 05 49 1D 19
 F8 21 D5 BE 35 CE 30 76 E3 01 DA A7 75 76 79 65
 4A 2B 3B 89 38 10 B7 81 D8 DE D5 E1 01 A6 BB 07
 3E BD B6 A2 3E 08 71 61 B5 8F 40 D0 80 EE D7 4B
 5E 6D 79 49 89 16 6E E0 CB DD B9 46 5F B5 9C AF
 B0 00 79 80 D9 50 EE 16 DD 5B A9 C0 87 A0 54 15
 F9 BF 9C 88 16 14 79 B8 CB DA D9 99 03 69 A6 AC
 2A 7A D5 BD A1 73 F3 8D D7 F7 F3 6C 28 25 5B DB
 67 10 23 E6 3E 85 8F 69 42 D3 24 6C 80 27 D8 32
 9F A0 FA F1 B9 13 84 3B BE 56 68 CB C4 4F 2C 37
 BA 97 3E 00 1A 26 54 A6 70 A0 35 5A A5 B5 26 F4
 F3 60 E1 0D 02 EF 33 59 E0 49 16 C9 6F BA 9C 2D
 F7 68 A3 B1 FC 9D 20 3B 78 A3 E3 5E 79 93 A2 F0
 0C 33 F0 4F F9 21 84 D9 C2 9A 89 1C 3D 0C D9 60
 7A 73 1A 48 7A D8 51 34 F4 DD AF 49 84 D7 73 CE
 D2 1E 3D E8 1D 0C 38 29 EC 50 A2 0E 62 95 8D 02
 2E 1F 89 8A 30 65 ED 70 1B 1F 2B 56 4A 77 F0 CF
 AE BE 18 E0 97 18 98 5B E3 CB 8D A1 3A 7F BF F3
 C4 9B EE B6 57 DE 4C EA 8B 6C A1 9F AC C3 97 19
 71 37 05 EE 7E 20 03 23 D5 1C 1A 74 8C 02 1F AB
 FB B3 49 41 2E 25 45 B1 C5 AA AD 7E F4 D3 9D 8D
 A2 77 51 29 17 C9 07 C1 3B BE 44 C7 A4 90 8D F5
 B1 D5 60 CF DA BD 30 F4 67 2B 92 6D B5 05 6C 24
 28 0B 3A F4 A4 C8 36 D9 5D BC 18 EC 8D 67 97 03
 F4 A3 9B 95 B6 92 53 9D 36 0F 63 26 A9 55 24 12
 B8 00 AE 0A 93 2A 47 61 4E B1 0C E6 48 A6 10 6B
 B5 FC E5 E0 EC 34 3A 75 81 0A CC AC 0A 5F 3B 13
 26 CD BD 57 6A 62 2E 22 FC 2F 07 11 3D 5C E6 F8
 8E 93 17 48 07 A9 36 93 27 8D 44 22 B6 62 CE 57
 88 B6 76 1B D4 F9 07 D5 5E 18 CD 2A BC F4 CD C2
 07 EE 0B 30 BE 16 F9 56 55 D7 FF 7D A2 74 C0 9E
 C0 BA 85 B3 5F 1E B8 33 82 67 93 3E 12 53 F0 38
 52 E3 D5 AE CD D5 5C 04 1B FE B2 F1 E8 90 68 D2
 37 4B 97 C4 ED 4C 14 D1 C1 96 51 6B 86 96 92 2A
 BE 1B BA 83 37 C7 C5 24 1F 2B 7E B6 CF B2 13 CC
 2C 39 E5 3B 66 03 61 DD 05 66 90 7A 65 37 9F FA
 65 9B 0F FC 77 4C 10 86 2E 69 72 6D 51 E4 6F 4B
 F8 81 ED 02 0C 8B 03 C1 63 38 4E 02 A0 C1 ED C9
 75 19 BA 1B E4 11 84 66 F5 B7 5A 2F 02 8F 8A B9
 42 7F 63 6D FF 59 FF 57 06 75 4C E8 29 17 3A F5
 E8 5F B9 82 B8 C5 4E D9 46 B5 19 3A 35 C9 65 68
 4E 82 E7 0B 6D 4D 3A 46 2F 23 72 7B B1 F8 C9 A9
 2F 1F 1E 60 9C 98 98 75 8A E7 F0 A4 6D EC 5A EC
 36 4B 1A 13 DF A4 BF AD D1 E8 ED 6F 37 9E 61 6D
 AC B1 8D 4A 16 11 BA BF CA 49 8D 7A 4C 8E 37 E9
 BB A6 BE 22 4D 61 12 A8 45 DA CA 9E 65 BE 91 BB
 B6 C6 AC FF 0A A2 D8 AF 3C 82 15 BC 8E EE 5A 94
 F2 28 AF 13 CD 5C E1 BC 22 7D 7B 97 64 E7 C2 72
 C8 7E E6 F4 84 BE A2 15 16 95 04 22 A7 A7 92 7C
 CF 9A F6 35 BC 5F 25 26 3C 24 34 1C 1B 72 A1 76
 DF DA 7D A1 96 AC 4D 30 E3 94 7A 5C 3A FE F0 23
 86 33 5E 2F 3F 2A 71 A9 A4 97 E3 A9 78 FC 40 C1
 58 CD B0 D7 C8 96 E1 72 E1 9F 01 35 87 1D 94 28
 36 7F 39 F6 55 5C 81 65 A0 72 9A 27 44 4F 71 FF
 84 6D C1 BE 33 09 7D D1 4F E2 06 88 E0 0A 19 AB
 AC FF C4 98 EA DF A8 6E 98 7C D3 79 02 1A 24 A1
 E6 65 1C E7 03 82 05 43 D5 A0 EF 65 81 5C 51 7C
 90 6E 2C 08 4B 41 AB B2 BB 6F AD 8F 17 BD 47 AA
 6B 1D 19 D1 3D E6 F3 73 18 07 AB BA 5A B6 B7 26
 50 10 0D C9 72 96 05 AF A2 B4 78 02 DA 76 64 D3
 89 C0 E4 04 C8 2C 3B 4F 2A 42 5A 04 07 A0 6B 54
 F7 90 7B 1A B5 F7 74 72 54 9C 3A 5B 24 94 10 66
 51 25 50 24 89 FA DE CE DC F0 5D D5 F6 EC CA 29
 55 44 76 02 76 39 54 29 3A 75 D6 0A E4 87 3D EB
 C5 5B C7 53 90 6A 89 8E BA 42 4C CA B9 A4 BE 60
 17 4E 5F 2D 1B 8A BF 7E 74 92 77 99 DD BD 18 20
 1E 6D 91 F1 08 E4 7D AB 9E BD 7D 93 1A CE 35 80
 31 AF FB 83 2C FA BA 0A 84 A5 81 70 47 FE E9 51
 08 4B A8 B2 A2 BE 3A 03 AF FB D0 D7 B9 E2 7E 1F
 44 DC 4F 5F BF 02 87 50 71 9E F2 26 B7 4C 2C 0C
 BA 92 82 61 D2 BF 88 0B 35 08 C5 13 3C 84 6C 38
 D8 F1 22 D9 9C A7 F5 BB C7 01 06 AD BE A1 48 D8
 6A 46 28 34 59 1B D1 D7 6F 81 9F 12 E9 8A B8 6E
 4D DB F1 40 A3 33 20 CF 87 5F 92 74 75 F5 86 C7
 0B CC E8 27 BC 05 EC 2C 16 D5 3F 3E 51 24 D3 37
 71 12 3A 55 9A F5 4D 03 7D 32 2F D3 E1 31 27 2B
 2E C6 E9 86 03 4A 9F 8B 36 EE 54 4F A8 FF D6 64
 24 CB 6F 2C 02 21 87 00 0F B4 15 02 3F 4E 01 FC
 28 D0 ED 1C BA 18 1C 68 5F 82 8B 6D 46 AE E6 88
 69 01 61 C6 4F 5D 27 07 81 A2 1D 09 0C 73 86 14
 E0 A8 AF 9E C0 77 B2 EA F5 9C E7 C9 D6 E8 47 67
 2A 87 A0 CE 9C AE 02 4A 2B C6 36 9E 00 32 04 93
 F9 DA FB BE C2 A5 13 56 D3 37 86 C3 E0 E6 6E E5
 46 86 82 7F 12 F6 57 5D 29 EF E9 15 24 31 2F 40
 4D C3 25 01 AA 82 73 7C E9 B5 DA 23 D5 1C 02 2E
 B7 F5 6F 5B 09 C4 F8 C4 89 39 16 A9 31 13 C2 5B
 38 E7 70 CD B0 E7 66 CA F6 8E E9 0F 71 EB 6E B5
 2C D1 FB B1 18 1B A6 2F B0 C5 B4 4B 67 65 38 AD
 05 21 F1 6A 36 68 C9 0D D5 94 0B 89 FC BA 41 A3
 F5 2C 63 CB 38 2D 88 65 83 96 7D 39 3C E0 9B E5
 A4 3C 41 A7 16 C3 1C 2D E9 CF B5 E4 FA 90 03 1C
 8C 07 48 59 29 46 20 53 D5 CE CD 1C A1 2D A7 B4
 E2 51 7C DC D9 E2 88 76 38 E0 F9 78 E3 A0 45 98
 F0 5F 6A 77 03 B2 72 A3 DD E7 7E AF 03 89 26 DE
 6F 8B 8E 6C 2A BA CB 38 46 9E F7 FF D7 5A EE 9D
 CB 67 9A 22 8E 17 EB 77 14 C9 9D BB 38 C4 7A 31
 0B 7E A0 3B 02 4A 3A CA 1D 34 60 B2 86 23 C4 AC
 1D 03 A1 82 B5 A9 77 19 9C F7 16 A2 BF 06 B9 16
 BE 33 64 C3 55 D6 A3 39 06 4F 07 9B C7 94 AF 09
 3E E1 23 2F C0 83 F6 1A 9C CE 45 2F F6 09 1E 31
 99 76 77 F4 23 C1 6C A3 0E 25 99 07 9E FA 32 67
 3E 88 27 71 31 C0 43 1F 14 E1 F4 44 84 5F E2 59
 F5 04 E1 CF 3E 7B F0 32 43 69 4B 92 4B C6 A1 94
 29 8A 0F 52 80 68 46 2B C2 58 F7 51 DE D4 14 98
 11 FF 83 19 CE 8D 5C 18 F6 61 9A C4 5B 13 84 51
 12 31 1F E2 A8 DE A2 AF B3 FC C6 98 14 57 7A BF
 E2 6B A1 54 72 02 FB F9 73 AF 2A 6A D4 86 29 1D
 B8 0E 5F 2C 24 72 A9 77 D2 FA E6 41 70 5B DD 65
 F2 9E F0 65 44 A2 0D 13 BD 39 90 F5 AE C8 76 BF
 08 62 12 64 A5 14 A8 DD 51 84 8C 6E B0 97 1D BA
 3E 5C 0A 71 74 79 76 04 54 66 5E 14 A9 6C 25 75
 22 39 01 7D 7E 27 24 5E F9 97 BD F4 B6 FC EF 3C
 61 AE 61 E7 41 F4 1D E8 C8 E7 7B 1F A0 3D 9A 70
 F8 52 5B 52 25 50 DF 8B 49 B0 23 D3 79 9F 2B 45
 BB 52 19 75 D2 06 F7 11 AC FF CB D8 2A 4E C7 71
 80 68 F4 AB B8 04 90 FC 4F A1 A8 47 AE 55 AB AA
 98 AC 13 55 49 04 90 EE 50 42 07 47 57 35 C2 E5
 F0 28 05 28 21 00 58 BD 79 AA A9 19 53 4D 13 0F
 51 37 BC 6C FF 65 C0 BE 60 C6 78 22 8C 79 F5 20
 B2 57 5A F6 F7 D7 5D D3 B3 A5 9C 12 62 4A 91 C5
 10 01 8C 10 00 27 4B 1B 7B 12 C7 B3 08 8D 66 43
 39 F0 70 01 37 9E BF EC FC A7 03 47 1C AB AB 94
 7E 07 16 68 42 7C 3A 11 0A 14 E3 50 E2 3E F6 90
 71 3E 67 49 18 54 46 15 30 21 03 F2 F5 9E A7 57
 01 A1 4C 2D D5 96 C0 28 62 D1 1E A5 EF D8 9F D7
 13 B9 61 B7 8A DD E3 DB 60 9C 5F 42 0E 41 F1 F8
 77 1B 9C 24 63 F5 BD BB 10 10 39 2D 40 C0 3F B4
 59 9D 76 09 71 EA D7 E2 B1 D3 A4 AF D9 50 D4 2F
 CC F1 A8 3D AE 30 09 C3 B0 7C 01 C6 02 89 1C B0
 5D A3 7E A2 CF 83 E9 2F 72 B2 8E 87 E0 DB 55 5B
 BD 1B F8 E0 5F 67 DD 5F C2 64 AC 50 01 83 BB 7F
 C9 61 5E 9F B5 E3 8E 5D 76 EF 19 E7 CA 25 6F CF
 16 AC 17 11 23 4D EF E4 F5 D4 F6 20 7A 62 12 C5
 18 27 12 BD 32 BA E2 A7 FB 79 62 22 84 6D 24 D9
 65 F9 62 96 45 97 15 D5 74 B7 A6 0C A6 19 97 C6
 27 B3 45 5C 92 82 1C 94 3E E8 40 9A 1D DB 18 BD
 FC 9B 62 6D 24 6C D0 61 0D 61 3E 65 A0 B7 69 62
 71 CB D8 32 93 18 4C 14 01 06 FC F9 85 60 DD E2
 A7 EC 69 C5 59 F6 3C 00 76 4F D1 8F 1B B7 9C 2A
 17 33 48 44 B0 35 5E 6F 43 EA B4 85 8F 2D D0 3D
 07 9B 90 51 BA 87 B0 AD 4F 06 3C 89 EB 03 BE 3C
 A1 F1 BA 28 B5 00 97 25 39 19 7B C8 2B 3D 80 47
 7C 2F A1 32 20 08 85 3C 8E 40 C2 BC 4A 0E EC AA
 C1 DF A3 86 F0 00 3B 47 8D FE 67 32 22 7B 51 7E
 31 95 A3 01 D3 E1 93 C5 BA 47 B4 16 D3 95 2E EE
 EA AF 1F 5B 3E 62 B2 A4 AF BA 13 87 9A 4B 74 3D
 B5 A3 0B C1 FC BD 6C 20 5E 9C 43 0A DB B5 A6 12
 1A 3F 96 4C 4C 6F 0D 3C A1 EB 3A 32 8B B3 05 65
 06 C2 BC 8D 15 FD 5B 04 61 6F DE 4E A6 C5 5A 4B
 7B 3A 2A 41 58 E9 39 6E C4 FB 58 3B D8 D3 7A BD
 DD B6 3A 81 F5 67 4A 4F F9 9E 11 73 E1 C1 FC 4A
 60 5A B7 88 7E 4E C6 8B 71 2D 26 9E 39 0B 06 19
 76 8B 61 81 BB B4 2E 57 02 C8 9A E6 25 45 06 13
 D7 2C AF 2D 2D BB 93 E8 12 D9 39 35 4F 64 75 50
 8D DD 9E 1A 28 F8 B0 7D 40 63 C4 95 39 E5 B9 BA
 C4 DF 2E 45 0B CB 80 CA C5 38 CF 55 3B EB B0 AD
 4E CB 85 E7 3C ED B1 B2 9F 13 6E DB 32 54 39 1E
 AA A3 5B B3 F3 78 E0 A2 D3 94 4B 04 A5 16 AD 9A
 0E DC FE CB E5 3D 20 82 4A F9 07 D3 2D 03 8D 6A
 5B CE 6B 2F C9 91 60 D5 90 25 96 99 82 AD F7 6B
 74 79 4D 88 0F 3C 86 73 20 F6 91 9D 9E 9B 0A 40
 05 AE 50 7E C5 25 A7 67 81 6E CB 12 4B D6 E6 FA
 57 FE DB 79 43 90 CF A1 99 DE 5A F0 CD 77 FC E7
 5A DE 99 49 3B 21 02 AB 38 43 E0 55 24 30 E5 DF
 5D 8A A6 E9 72 AB 93 D2
* End 615884115 2657508517