* LTspice Encrypted File
* 
* This encrypted file has been supplied by a 3rd
* party vendor that does not wish to publicize
* the technology used to implement this library.
* 
* Permission is granted to use this file for
* simulations but not to reverse engineer its
* contents.
*
* Wurth Electronic eiSos Germany
* EMC and Inductive Solutions
* www.we-online.de
*
* Date 2006.03.21
* 
* Begin:
 06 62 B4 A6 A5 B8 55 AB 9F 60 05 C2 1D AD 3F 8F
 56 62 CE 1A A3 AB 4D 31 65 6F 54 86 19 C0 52 FD
 9F F0 03 21 54 E2 F7 D9 1B 08 F4 E4 EC 33 F9 B3
 2D D8 9C A6 49 69 2E DD D2 19 EB BE D4 3E 3F 61
 74 F2 7E CE 5B 85 16 5C 71 1A 1B C9 83 47 EF F2
 C9 DA 1B 2C A9 F6 10 B0 93 3B 5F F3 0F FC 9B E6
 00 7F FE F9 A4 7C CE 97 52 F1 A1 DB 6F FD 74 E3
 DB 26 14 A4 7D 8F 4E 4A E0 67 98 4D A7 A6 10 39
 D2 D5 C7 1C 9B 8B 12 16 A2 16 5F 5D 9A 56 BC 34
 DF 56 AF 9F B4 3E E6 C2 0C 6B 23 8F A1 B8 CE 97
 57 EA BD 58 78 93 32 92 29 8A F0 CB 57 01 55 DA
 F6 7F D9 7A 91 8D 83 CD 2C 9B B5 2D 30 F1 B6 A1
 7E 99 3D 78 1A 6F 7C 42 41 B7 27 89 9E A0 98 CD
 B5 72 98 F0 60 25 8E 26 3B 6E E1 DC C5 D1 C3 20
 D5 32 43 5A 63 C2 A1 5E D4 6B 1D D3 A8 1F 83 72
 93 1E CD 8C 6A FE 1D 26 86 B0 5A 1E 4C FB 57 5F
 00 75 D6 C0 BD C0 98 3A 39 0C 9F E1 41 17 52 A9
 EB 35 85 4F BD 49 21 3D CD 19 EA C4 34 12 82 17
 FC BF E8 43 CA E2 54 28 4F 78 02 62 5D BE 70 47
 B5 2C B9 52 02 BC 5B 22 58 48 69 B8 7B 47 A4 80
 C4 24 D1 80 EC 60 20 84 FB F0 EC 39 43 81 B9 AD
 73 CA 99 82 1D DA AC 69 95 07 EA D3 7B FB 36 3C
 26 97 03 6F 67 92 29 32 8F B4 2C 49 35 0F 9B 7F
 F4 C2 68 89 F0 E0 9A 52 3B 04 6C 20 FD AC F3 ED
 B7 B1 21 41 F9 DA F0 8D 15 C6 14 70 A4 1B A1 DE
 E4 64 FF B1 D1 A0 E6 4A E9 79 68 E4 89 C6 4A 04
 6B BF A6 70 E0 88 AE DB 4C 31 8A EB 96 52 7C CC
 E6 BB E3 CD 9B 52 83 8F F4 C3 E4 69 2A 9C E7 62
 F8 D8 F8 CB 98 9D 89 DE A2 60 44 FE D3 0C FE A4
 2D D2 C8 16 F8 45 7F 00 35 DB C4 A4 B4 2B B8 31
 3E B0 1E 2B 2F DE 22 2C 3A 5C 3D B3 24 FE E3 78
 7C 8C B2 43 6F 4C DD 05 31 E2 9B A1 4A F0 C1 AD
 21 B8 11 66 AA 08 3C D1 31 3D 74 39 9F C4 81 3A
 3B A9 C5 34 D6 DD C5 34 E6 76 00 E2 F5 69 7F CD
 09 8A 91 87 C8 D9 49 C8 E2 C8 BA AA E4 6A 92 59
 1C AD 4C 7D E8 43 56 17 DA 96 A6 B3 D0 01 44 81
 82 22 16 E0 77 FD DF 97 E6 C5 2F 8E AE 04 79 F6
 AA B4 E1 44 E8 35 BD 0D 31 1E 5B 1C 21 99 1C 9C
 22 DD A4 FE 9F 8E FC 7F 8F 6D 7F 43 31 ED 14 36
 68 2A 2B 41 2C 84 0E 37 DE 5F B3 4C 89 46 57 D8
 94 C8 F8 D8 FF 0F 8C 81 24 AD 58 A3 15 EA 86 27
 FA 7F 8F 38 8F 0D FB 02 29 A6 ED 9E 25 DB 6B 4C
 20 F1 8F D2 69 18 23 42 A0 BD 17 A9 10 EF 96 A8
 4E BE 38 2A 93 29 88 44 23 AA 8A C2 CD 64 AD F7
 C8 C6 FF AE 6F 60 74 30 32 D3 FC A0 46 7C 25 A2
 20 B0 10 E9 F8 8A C4 67 26 A3 6B 60 B6 C4 66 DA
 3A 90 7A E8 23 27 EB D2 E9 74 96 1E 05 0C 30 AA
 18 54 66 E7 3D 20 D2 FD F2 D8 09 08 38 8D C2 40
 A5 5E 42 38 E8 02 0E 44 2E FA 2E 90 1A 4D 03 66
 B7 93 59 0C 1A 59 DC F4 1F 5D 29 0E 60 08 29 5F
 6E EA 7D A2 9C CA 6A F7 B4 24 22 25 45 F1 8F 48
 50 72 D5 EB 6D 1D 98 22 E6 B6 7F FC C8 AF C8 C2
 CF D0 45 FD 92 78 97 57 12 62 FE E3 14 86 F3 C4
 42 4F B1 69 6C 5B 21 3F 2A 21 14 F2 03 3C 83 88
 3D 3D D0 DC 5F 5F 99 75 3D 80 65 AD 41 C4 BE 73
 65 4A C1 C0 80 D7 46 DD 91 30 C7 75 49 E7 21 68
 21 C6 B9 65 23 23 77 D0 FA BE CF 07 AF D5 AE AA
 F2 BA 70 53 5B 23 0E 9E 2D C0 56 B4 F7 7B A9 21
 1B 64 BE B7 55 98 ED 95 17 43 45 88 C5 2C 30 5E
 E5 F1 62 58 53 70 C0 C1 79 8E 96 40 0C 53 F0 A6
 7C DD 32 53 9A D6 9C 52 0B 0F 70 4A D7 E9 CA F1
 57 AE E9 8F D3 7B EC A5 86 56 D5 F9 5A AE 9C D2
 44 98 CA 07 5E 65 97 39 27 EA 52 9E 0A B4 C9 EE
 EE 30 36 3F B9 8A E5 7A 65 DE B0 68 DD 8A 8A 52
 9F 48 37 2E 91 35 0A D1 17 4C 0E 36 F4 0F DA AB
 DD 92 BD 46 16 EB BD C7 BD B9 CD 1A 44 EA C8 7C
 83 A8 9C A4 F6 6E 9E BE 92 A1 61 93 3A 60 87 FD
 5B B3 A8 ED CE B3 06 C1 00 75 30 AA 62 96 A6 81
 B9 CB 99 54 05 F9 DE F8 70 15 6D EA 00 12 66 AA
 EC 1D 3E 69 46 8A 00 84 8C 7E C5 0F 66 58 91 1C
 AC 74 6A A6 54 62 DF C1 D8 AB 6A ED 7A 8B B1 9A
 4B 79 F7 9A CB 0A 6A 6D 4F 92 A8 9F 68 78 DE 38
 B3 10 28 BE 36 9D 1D 99 4C E5 56 40 3F 12 A5 15
 37 DA 9F 27 07 2F 92 E5 3C 2A A7 28 4F 38 63 72
 2F EA 87 BD 65 C0 CC 2E 85 C2 91 95 26 E0 FD B5
 E4 60 71 36 3D BB 37 EA 41 9A 15 6A 60 1C EF 0A
 0D 13 B2 16 04 C9 C3 B9 BA 19 09 8C 1A BB 62 E8
 54 8E 20 1D 58 2A 97 8F 9D 13 51 E4 43 C5 6E B6
 50 F2 5B 75 7F 03 FC 24 52 EE E7 76 65 CB 0A 46
 03 49 50 C9 9C 1B ED F3 86 6D 00 AA C3 A7 53 02
 88 C0 49 F0 90 F0 15 E8 59 4A 47 EE 83 80 D1 9D
 E4 18 D8 EC A1 CF 06 43 7E B5 D5 98 FE A8 8B D4
 ED C9 9B E0 40 B4 CD BA 98 C4 16 43 D2 D4 70 67
 EC 72 FD 5A EA C0 33 EB D8 13 AE 39 54 11 25 CC
 39 D6 7D E5 E7 87 06 04 83 09 6F F6 B1 3E 98 49
 81 9B 6C E7 88 45 14 FE DB 2B A3 24 53 2A 10 B1
 4D EC 62 36 DF F7 B3 06 05 89 DC 8F D0 C9 9F 8A
 D0 97 D9 4C B4 01 54 A4 EE AF 18 59 30 90 8E AA
 F1 2A 09 AD 05 86 59 4B 9B 6B EB E5 31 0A E1 0B
 CD 93 C8 BE 92 A3 16 8B 29 33 46 6D C6 A8 D3 6E
 9B C7 D2 84 CF CD 00 A2 86 46 7A 95 03 38 19 C7
 B9 A9 3B E7 6F 89 EC 3F AB 12 43 BB DB A6 D6 9C
 D2 BB 35 DB 47 EC 0E 42 1C 51 63 19 94 38 B4 7E
 E2 47 43 69 17 2E C0 E9 9D BC D9 0B 80 EF ED 11
 6A FE F0 73 84 6E FB 56 12 42 2B 69 F8 25 37 68
 81 EA D9 62 84 A8 BC D8 B2 3F 89 B5 65 BC B1 52
 62 6F 43 73 70 32 73 BB 14 E6 BF 9F 96 A7 82 59
 A3 FD F7 61 CF 3E 50 6B A3 36 B7 D0 6B FC 64 9D
 4E 4F CF 27 9A 71 22 99 D1 8D 72 3B 5E D7 FF 14
 AE 60 18 6E ED D6 A5 1E 3A 6D 6C 79 54 40 24 47
 65 AE 2F BE 5E FC 7E CE 21 8F BE 2F CF EC DC A9
 40 F7 81 C3 04 E6 9E F3 41 6C B5 A8 AF F2 0C 1F
 E0 D6 BD 30 DA 64 DE 51 D7 1C E6 60 51 79 B0 1D
 BF 18 66 02 3C B3 37 1F CF CA 11 5C 3B CA B3 D4
 5D 75 41 22 0A 5E 75 A9 30 3B D8 2E 7D 28 41 20
 3E C6 13 E2 D2 CB 27 16 8F 97 58 6C 71 64 D8 D8
 47 2B 2F AE 1A 3E 94 98 22 82 CC 98 95 B5 D3 DD
 CF FD 73 A4 CF 32 A9 69 8F BA 5E F5 9E 51 36 AB
 E4 6E 6E 83 5B EE A1 D7 F6 11 1D F1 C3 E1 21 F7
 8C 66 C7 0C BC 75 BE 8B D3 50 80 71 2D 47 C9 E7
 86 46 69 07 C9 43 64 6B 09 EF 9C 49 E7 F5 55 52
 1B ED 6C A6 70 B6 FA BF 41 7C D7 7C FD 64 92 74
 4E 0B B0 DF 1A 09 A9 E1 BB F0 CC BA 52 DD 27 DD
 B4 67 C5 3A 89 AC 50 02 E7 CB 4A 90 5A 81 7D 22
 6C CF AD 54 F4 9A 15 9B 21 F3 22 B5 64 4A A4 AD
 1E BF 54 72 62 04 7B 69 2E FC ED 4B 3C BB 4F 38
 42 91 64 5F 68 E7 3F FF FB 59 4A FB DE D6 9E CA
 6A F7 7F 87 1E D1 C9 20 8D C3 16 BF F8 FC E9 8D
 C5 C7 BA A5 E7 C2 8C 65 9A 40 E2 F7 65 23 09 D2
 34 D9 8C 66 B5 FA DD D7 D5 0B F3 E4 E4 6D 73 86
 6C 80 1C C2 3F 7C 66 55 74 17 E2 9B A8 52 5C A1
 D2 07 BD BE 8C 65 C0 7E 59 2D 29 72 B0 09 4C FA
 3B A1 77 91 E2 7E C2 05 70 2D C0 60 10 48 65 D2
 12 3C 0B EB 5E DC C0 7F E1 75 1C B6 32 27 25 15
 87 34 C2 7D 0A 71 81 7C 12 38 E9 EE DA CE F8 86
 ED C7 B5 6D FA 86 0D 20 26 82 2D 4B A3 47 F8 35
 FB A6 4E 13 C5 E8 0D EC 55 32 70 EB AB 2F DD FD
 10 73 78 62 79 7F 7E 1B 52 A0 9D C4 09 3C E5 FC
 88 42 55 43 E5 A5 E3 37 26 52 86 92 A9 05 36 75
 5E 32 9F C5 67 8F 6F 13 B9 D7 F0 A4 F3 29 32 C4
 D9 D1 98 65 18 DE D8 E5 67 AF 18 C2 7B 6E 52 9A
 11 93 51 2C 8B 7F D0 3F 19 01 F2 25 B4 B8 3E 03
 58 75 D6 E3 E5 08 B6 61 37 CE E0 C3 93 2C 01 B9
 38 D6 71 4B F9 00 6D 31 A2 6E 81 57 A8 C4 97 1F
 F7 D8 E7 DD 2E 2A 86 98 69 60 37 5C 92 2E 2F 3E
 03 02 38 82 6B 27 F6 F5 EB 6F 22 C7 B6 7F 63 DC
 6A 2D 58 2E D5 8B E7 4D E5 E7 1D E7 03 DE F6 57
 7A 31 47 B1 92 4D B4 49 67 16 8A F7 A8 FE DA 79
 AB A8 7E B7 CC 9A FF 60 46 F0 BB 3C 3C 49 F8 61
 E3 2B B3 D9 9C 3B 14 65 5C 6F B1 D1 13 BB 1E F7
 10 DA 74 47 70 2D 04 F8 23 C7 77 A2 65 A7 88 A8
 8A 0B 8B 0C F4 C0 E3 85 5C 52 90 AD CC BB DF 30
 56 64 24 56 37 0C ED B8 AA 05 47 17 AF 81 0C 87
 55 8C C2 EF 7F B3 A8 18 DA C8 DC D1 00 93 64 58
 DE 3A 8B 06 76 36 53 4D 09 1C 4B 01 62 E9 3F 23
 E0 6C 4F B5 5D 26 5B 74 A2 60 D8 21 F3 AF 7B D8
 5A 16 B7 3C C8 38 A3 9F AA 08 67 61 5E D7 6F F8
 49 EA EB 0F 41 F7 C9 FD A2 85 A3 DF 12 4E D5 1C
 AF 42 EB 29 29 7C FF 19 1C 8D 8D D6 C8 87 1D D4
 21 DB BC 2D 38 68 5D BD FD 12 D1 BD 9F 3C 8F 4A
 34 6F 52 BC A8 24 39 15 02 60 37 46 36 E3 FC 74
 A7 52 29 68 B6 6F 97 03 AC 53 DF E7 07 A6 19 8F
 A4 01 6C C9 7D 69 0B 27 FA A7 E9 58 59 A3 DD F9
 B7 9A 02 CA 62 8C 34 BA 90 7C 53 19 C7 B6 12 7C
 49 91 1C E0 68 B6 BF 43 26 62 96 FB 26 78 06 60
 A7 51 0E 9C 65 90 41 00 82 84 25 4E 92 99 F5 17
 FC 58 16 32 91 39 E5 A9 DC F7 87 52 4E BF 52 38
 E0 60 BD DF AF BC EC CA 51 25 4C 05 48 CA 35 08
 F1 3B 38 02 85 C1 05 0B 32 C6 3F 68 E5 DD 64 C6
 45 DB E7 8D 85 D6 EB A7 80 DB 69 F2 2D A8 64 7A
 91 76 FD 34 12 39 7E 13 08 81 4F 37 8E 97 A7 72
 53 DA 05 3B 11 81 A3 C9 A8 2E 47 8B EE 30 E2 29
 76 65 AB EB 68 4B AF DA 44 90 B1 54 6F BC 72 52
 BE 53 03 0A 8C DE B3 1B F7 B9 DF 4B DA 07 1D 40
 F4 C8 3D 5A 4E 71 D7 B4 56 BD 15 2E C5 B0 25 00
 06 D8 BC 3E 96 92 BC 10 B1 1F E9 59 18 B4 5F 47
 07 A9 74 4E 22 80 DB 88 2C C1 F5 66 FD F4 9D 37
 3B 5A 7F E8 10 7B 37 69 EE 61 A3 AD 0D B1 37 17
 BF 6D 7A E0 49 E5 A6 AE F3 72 AB 90 A2 4E 04 71
 3C 0D 92 98 01 15 15 AA DA 30 59 52 64 F2 09 40
 83 E4 AB 50 A2 BF 73 F8 E3 1E 3E 5A 41 1A 6F CB
 CA C9 1B 2E D7 CB BA 83 61 C7 68 49 0F 99 DB 3D
 9F 38 03 06 1B 2B 35 A4 20 5E DF 1D C1 8E C8 D2
 C2 49 99 01 89 7F 22 B9 23 D9 C8 86 A9 AC 4D FE
 EA DE 2D EE 10 47 01 FE E0 AF 6F C2 8A 48 29 7B
 A7 67 49 39 E8 DB 4D 98 AB 89 D2 41 8A 25 9B 34
 06 2F 26 EA 0D 4B CF 84 9D 1A BE EC 1A 5A F9 3C
 D4 41 FC C9 DE B1 F9 19 F8 06 68 36 E6 19 3B 59
 C3 7D 8E F7 30 E8 12 3A FA D7 0E F6 19 0E 1F 2E
 1E 0C CB 7D BA C9 0D 58 58 CA 0B 37 5F 33 A2 0E
 FA E5 44 16 F9 1A 70 FC 44 05 65 7C 38 7F 66 D3
 75 E6 BE 21 E3 4B CF B4 93 19 D4 E4 58 7E E8 BE
 ED 97 42 AA BE C8 32 D3 38 08 8C 70 49 21 91 B4
 FE 6F 19 80 69 67 EA 64 C7 D4 0A 4A FB AD 3E BA
 56 A2 8B F7 B7 C6 84 CE C9 C2 14 62 C7 77 48 3D
 EB 7F 25 82 24 9F 7F 7A BF B3 A2 BA 23 12 B3 81
 A7 82 7C 0E 00 97 05 CF 0A C1 40 8E 95 2C 69 24
 54 F4 13 44 86 89 B9 C8 0A 8B 5D 5D 85 56 B6 1D
 B5 7E 59 CF 6B 34 36 26 F8 2B 43 E3 68 BB 4F 43
 08 43 98 36 C9 69 0E BA 2B 58 76 91 A2 6E 1F 39
 BA B6 74 E2 50 79 CE 43 A0 DF 3C C4 6C 19 69 D8
 AF 9C 1C 37 2B CC C6 53 FC E4 0E 3B 15 53 4C 7B
 4B 5A 08 3A D6 EB F5 46 27 20 F2 3A 77 6A C2 7B
 BA 82 67 97 4B 1A 2F 6B 0B 7F 7D EC F6 6D 47 A1
 C0 BF BC A7 84 25 D1 83 48 C5 EB 8C AB 10 0E 7B
 00 6D 2E BA D3 CA 0F E6 AA 95 BE 24 45 52 0A 51
 BA BB 26 36 67 1D 3C DC E6 F4 9A 78 69 0D 50 D5
 80 99 CA 3A BE 10 6D 94 4D C9 AE 41 45 66 53 2A
 74 BF 20 CC 3A 39 72 FB 88 48 69 B3 91 C6 7F 8E
 E1 5F 81 0D 55 70 06 33 EA 8B 57 B2 16 A2 52 B8
 3D 11 B9 85 48 D7 5C 04 79 33 B9 A7 F3 EE 67 C5
 0B 0E FA AB 17 28 87 91 04 A3 36 F4 20 88 86 ED
 17 06 0B C1 E0 76 BC 5A FB 0E FF 49 E0 8E 9D FA
 3E 3C 4B F4 DC 1B 17 13 2B A4 9B FA CF 37 44 85
 AF 2D 9A 2F 2D 4F 42 C1 86 C1 D3 2F 3C E6 54 47
 26 80 48 3B 85 EF 19 28 32 F6 7F 1D 11 05 CB A7
 4F 78 A8 17 14 DA 08 69 76 E8 30 DD FD 8D 92 20
 50 01 33 CC 39 F6 2F C5 AE AD 73 3E B8 72 37 70
 CC 32 55 90 C3 82 A6 1F 15 BD 03 9D 2F C3 21 E8
 B7 F9 8A 6C 87 87 4A 7A 3C 8C D4 85 0B B6 9A 0A
 00 AA AC 02 89 43 74 43 CE 15 F1 2C B5 66 B1 8F
 CC 81 7F 5F C8 2F 1F B8 E1 37 C6 DA CA 01 B6 91
 D3 66 1B B8 23 84 7E 80 CB FF 1F 24 19 BB E5 EB
 86 91 8C 6B 35 27 4F AB E5 0C 61 6D 7A 04 51 12
 33 0A ED 68 20 4F EC 23 24 63 59 33 B7 15 F3 04
 24 58 CC 26 1E EE 1F F8 F1 5F 79 51 CF A4 6A 9C
 1A 46 9A 85 12 C8 FE B6 62 6F 73 EB FE 4C 4E 51
 13 97 26 00 62 EC 95 67 D2 FE 8F CB B5 1E A1 B1
 EE 32 1E BE 1A C8 85 CE 4F 47 ED F1 81 47 BB 5C
 CC AA 0D B7 6F F0 8A DB 37 BF FB AD 89 52 56 B9
 34 1D 42 59 5B 57 2F 64 AD BB 77 1E A5 52 DB 73
 CF EA 71 61 06 0C 05 00 48 78 5C EE A9 BB 74 3B
 8F A9 BA 36 03 DF BD 8B 5E F4 16 50 50 13 68 36
 78 BC 9E EE 58 A7 36 34 3A 3E 3D 83 9B DF 2D FA
 26 A4 92 DB DC 6F 59 3E 46 E0 7B 50 78 74 9A 61
 67 D2 C7 AE 43 33 0C 15 D8 9D 92 5C BE 59 2D 47
 71 63 7E 6C B4 AA 90 B0 9E 79 C1 A3 FA 94 67 84
 C0 3C 22 38 06 B7 D9 BA 5C 29 0E 9D 44 D8 4B 62
 E9 7F E4 CD 3A 19 D0 F2 AB 71 72 52 EE 1C D0 CA
 14 AB F7 4C 80 FE BE 06 0A 91 AF 54 E1 21 60 03
 54 6D 1A 21 56 06 66 00 E9 F1 5D C9 09 34 D9 B9
 72 81 BA 4F F5 E2 02 A4 CC 25 35 4E C9 75 FC A9
 F6 8E 00 0B A2 2E C0 0A A1 58 6D 1C 7F 7D 16 9D
 71 DC BB 9A 21 DE 81 DB A3 B8 B7 F6 B2 FC 1A 09
 7B 80 DC 47 16 AB CC 0D 58 38 46 A9 AA 1E A2 2E
 7B 66 98 D0 F6 26 03 ED 40 35 E2 FF 59 D2 5B ED
 DA 5D 54 90 BE A1 03 67 27 0C 9E 71 FD A8 43 54
 77 97 2B 4D 63 C0 19 92 0F 2D F4 10 62 1A 65 A5
 6B F4 BE 29 18 C5 BF CC 55 63 2B 71 6B 1C BC FA
 8D C6 F2 64 69 0E CC 47 39 1F 61 C9 D1 8D 5E 4B
 2C 46 56 25 33 E9 4C 36 9C 76 73 35 DD E9 25 97
 EA 5B 01 D7 9D D5 DB 17 14 8E 26 9D 1F 75 FA 3F
 D2 C6 F8 07 85 97 07 C0 25 2A 23 FE DE 10 2B 55
 BA EE 38 E3 BD 3F 3B 57 E2 04 36 2D 97 E2 31 8D
 17 28 FB 71 08 61 AE FE FD E8 A1 7D EB 5C 48 72
 51 9E 50 F3 5A 36 46 EC B3 D8 A6 0F B8 4D 28 3C
 9A F9 9E 65 51 AA 58 21 F2 08 22 51 E6 7E 87 49
 1B E8 0D 13 45 A7 4B 4D 8A 8C 6C 0B 43 8A F4 C5
 CB 04 32 DA D5 14 15 BA 32 06 33 FF 42 38 A0 AF
 34 50 F9 E6 0F 8D C5 8E 5F 8C C5 3D F7 BF 6A 64
 20 EA 37 76 88 2D D1 0B 64 4D ED 45 A9 51 47 2D
 84 47 D1 E2 0B 0B 6F 62 3A 7B 51 37 ED 3D 19 B0
 AB 21 24 5D 51 F1 C0 C4 8D 68 C1 2F C3 1B C3 F0
 C7 B9 28 36 B8 9D F9 A1 26 9E C0 C9 9D C7 F1 E2
 15 87 43 39 B3 68 03 76 D1 E5 19 A9 4F AA 92 E0
 BA FD 5A 13 F6 62 1B F9 BA E9 C5 1D 20 09 07 87
 F1 E5 4D 6A 48 FE C2 C9 A8 EC CA 1D 0A 39 55 76
 F1 43 9C 1C 18 DD 0D 34 9A 7D 24 17 F6 B2 35 6C
 3E A8 92 D0 10 0E BF 8E 76 D8 BF D7 E0 8A FA 2C
 4A 8B 8D 8E 75 E2 D2 46 9F 86 59 BB CA 7D 40 01
 91 B4 64 F1 3C B8 CF E8 9B D8 11 FA 9A 13 AD D3
 5C 55 E0 D0 BC 3F 5A A6 F5 76 F3 ED 04 F5 52 58
 67 65 3D 42 8B FE 18 66 FB F2 4B 8E 81 94 FF 88
 72 00 8A FB 49 C0 F7 06 EE BB 9D 24 A8 B1 1F A4
 1D F8 7F 1E D8 08 09 54 04 19 B5 9C B8 F1 67 12
 15 EF 6E 46 97 0C 81 5A 60 CE B9 20 06 00 5A 57
 EB B8 BC 26 40 0B 5D F9 1C 0B 71 39 FE 8E 98 0D
 46 22 90 0A 53 7A 47 8E 0F E2 4F DC E5 E0 C5 B9
 03 65 8E D8 11 49 A8 43 45 D3 86 55 B9 8A 7F 2B
 ED 39 86 87 68 54 22 44 1B 3C 78 D7 41 F6 97 AF
 0E E4 06 CE 3D 0C EB 07 51 D5 AA E5 71 0D EC 0D
 E7 D4 5E C8 DB 08 AE A6 AE F5 42 60 EE 75 CC 3F
 6F 57 13 C0 3E 16 29 A2 C5 9E 15 BB 19 89 5D 83
 71 63 63 BE 9D 0E B2 9D AC EF 79 A2 C5 30 58 01
 C6 D6 82 78 38 60 9D E0 A5 D1 7C 74 04 24 8D 5C
 EF 62 8E 72 1C BB 87 6C E8 30 78 1E AA AF EA F4
 0E C6 44 DA 4A 73 3B 7F 81 84 F4 75 D2 FC 14 51
 52 24 4E D2 74 F6 F2 A0 FE B5 75 4C 2C 4F 99 11
 D3 73 FF 8F 6E B9 9A 77 AD 30 85 15 FA 64 D8 10
 EB D8 72 DF 75 BC 2C AB 48 27 1B 37 3E EE 73 11
 DE 82 BA 49 D2 14 47 34 BE 61 7D CB FF 2D D9 79
 3E 63 BA AE 1D E3 A1 B7 DE 90 DE 8A 8F 5F AC 84
 A2 86 57 EA A8 7F 9C E8 87 2F FE B8 4A 80 A8 B3
 A2 29 3C 8E 62 1F A1 AF F3 92 9F 79 1B BF 7B 71
 CB 1A 30 27 83 5A BF 69 5F 8E 2B 25 25 A9 B7 55
 D0 B7 80 1E F8 BB A0 75 2D B3 59 D2 E8 CD AC B3
 DA 1F 82 44 D4 ED 52 BF 4F 2D A6 42 F1 15 A6 4B
 FF FC 68 F8 08 E0 23 1B 63 C3 71 F0 49 06 86 32
 5F 5D 01 3D 42 88 F0 67 EB 6C 22 08 5E 20 12 C1
 04 EB F1 06 D9 27 F4 B1 14 68 2A EE B2 3C D3 AC
 77 19 CF 77 F0 43 8B D6 AB A6 43 91 F8 62 3D B8
 8F 3F 6F 89 4E EE 20 B1 A4 15 E7 BE 3A 97 C3 29
 A8 2D 7D 5D BE 0F 7C 4E 62 B8 C0 DE B2 A2 31 83
 CF 2A 06 31 0E 08 B5 C4 7B 88 82 6A 42 F7 E5 6D
 F9 95 67 62 26 DD 62 2A 56 E8 7A F0 B3 09 BD 5C
 7D 75 15 8B 06 BA EF F3 AD DD E5 B3 CD F3 2C B0
 70 E4 97 B3 4E 46 D1 DB 78 83 F3 A6 36 47 77 10
 20 F3 7B 8E 15 41 E0 3A 0F E7 0D 00 BF E4 E4 31
 31 03 BB 5E 78 9F 1A BF B3 D9 53 37 3D 61 96 67
 58 9E 4D 13 41 86 C1 EF F3 B0 F9 F1 9C F6 F5 36
 49 FE 62 CB 76 6C 10 24 87 27 A3 3B DD 02 38 41
 A4 7F 54 4B 58 55 F6 51 CC 46 90 10 01 B2 57 5E
 0B EA E7 FA 9C 8F C3 33 37 F2 BA 96 25 08 F0 77
 B1 41 45 E8 1F DB 1C B8 49 3D E9 FE DC EE 8A A1
 3F 21 DC 19 B1 BB 2D 51 5B 25 04 C3 C7 18 F7 48
 C9 30 66 9D 36 7C 07 2A 8D 3C 1B 6D 01 8B 87 9A
 07 15 71 0C 19 37 C3 E4 7D 2E FE A5 60 90 AA 3A
 0C CC 3E B6 A3 DE 6E 2C 8A 95 11 B0 A7 AC A9 A3
 C0 9D 84 66 3D D3 84 A6 72 B5 00 DB 23 41 E0 2C
 08 9A A6 C1 7D E2 94 15 82 A1 43 05 6F 41 E7 7B
 CD 97 03 4B 27 24 2E 69 CA 9E BC A4 47 CA A1 97
 FA 6D 11 1E 25 0D 46 70 2A 9D 76 1C 35 D3 E8 FA
 1B 45 71 98 CB 66 25 1F 44 91 FD 4D EF 98 33 7B
 D3 48 9B 5F 2C 84 2B 21 F1 80 F9 C3 EB 5A 91 18
 04 2B D3 8F C2 08 60 BB 25 33 E7 BF 37 F9 38 1F
 36 C9 F8 5B AE 85 4A ED 7A 04 53 C6 34 CB 02 B2
 00 61 83 D9 79 22 4D 7B F3 C0 BC E9 18 6A E0 3D
 57 6C 55 E2 A0 A2 3E 97 B5 20 42 2A 29 79 D5 57
 58 C0 9F E1 14 03 02 F2 2F C8 12 F3 B3 5B 8C 0C
 03 8F 74 6D 0A FC 61 2A 22 AA 4B 58 0C 8C 8A 00
 E0 6D 6C BA 78 DB 6B 1B 1F 4F 98 E1 7C 54 B4 51
 A6 A0 EC 85 D9 6C D5 3B 44 83 1B 09 E7 B1 AB EA
 E7 72 16 47 13 4E 2E ED 49 53 BE 2C DB 60 C3 1A
 9A 34 34 FF 8F 54 AC 6D 49 C9 3C E7 4A F8 7B 83
 80 F4 69 55 84 F6 97 3F 7A C4 92 10 8A 6B 90 BC
 2F 21 AB E2 D7 A8 11 9A 20 1A F6 36 99 DC DC FF
 7A 90 18 CF D7 17 F3 D1 FC 25 76 1B BC 55 23 2C
 2B 6C 04 82 EF 87 9A B4 55 BF 02 32 76 69 C7 83
 24 60 26 EB E6 22 C1 69 A9 5E B1 3D 98 00 1F FA
 3E 70 79 3C ED 81 D7 5E 0F 92 E1 0E C5 82 B1 BF
 86 BA 67 E3 0A BE 6B 54 CE E1 11 76 58 CA DE 82
 B7 F5 D1 BB 92 22 72 1B 03 45 25 2E EC 50 25 3D
 E8 06 39 47 6E 13 B2 20 04 7A A4 8D 18 CB 6F 4D
 2F DA 74 32 DB 4C CC B8 7C D6 CD 9C 36 84 79 13
 8A C5 34 1C BA 48 36 6D F6 94 7B CA 65 E7 81 AF
 61 15 6A 40 F7 0F EB C6 01 6D 08 4C F6 04 42 03
 28 50 65 AC 7B F3 92 44 35 0E 7F A5 B3 78 B7 49
 DA FB 4D 74 67 5F B1 76 53 6A C1 C9 62 D9 76 59
 E8 34 C8 6B 46 3B 69 D7 8E 58 3D F7 17 26 D2 AF
 0C 90 BF 3B 65 83 04 69 D4 24 E6 C6 A8 8F A6 7C
 2C 07 CE C4 36 19 26 07 DE AA 3E EB 2E 20 65 38
 3F 0C 33 AD 40 25 A2 43 45 92 B1 0B 27 E1 7F 67
 AC F2 2B DE 2E 73 F8 34 40 46 66 14 32 69 D2 B2
 F6 72 95 35 6D 2E 55 94 E6 B8 4E F7 6C 65 41 95
 AF 24 E0 B7 B7 CD 32 BD 6F 3C B2 C8 64 80 D2 B7
 79 35 E9 14 14 7F 02 9E 10 7A CD E8 C9 8F 06 1E
 FC 50 F7 05 10 9D 1E 75 22 F8 A9 5F 49 34 21 D3
 96 2F 8D AB 8D ED 91 88 E5 9A B4 2B D6 82 2E ED
 E0 1C 82 27 28 FB 8E BD 86 C1 18 90 49 71 87 1A
 CC 18 98 78 9A 71 FC 0A 6E BA B3 61 5E CC E7 F7
 25 2C 4C 0A 3B 31 61 B9 10 7E FB 64 19 73 81 C8
 10 6B 30 67 3D E3 DD 88 0C 99 11 EC 68 E7 65 7D
 F3 29 86 8B B4 F7 00 3B B6 55 28 90 77 B4 E5 6E
 AD C4 DF 87 25 A3 CB 2F 23 29 6F 7C 10 93 71 CE
 0F 60 60 D9 44 0D 22 D4 02 B7 55 DD 4F 1B CB 79
 19 D3 63 D1 3E A2 DB F7 B6 BD CA AA 3A 24 93 54
 16 78 9C B5 B7 C5 49 0A E9 4B DA A5 A1 9B 25 56
 B8 4A EE 77 91 DF CF 5E 23 EF B1 46 6E AA EB DD
 DB 5B 5E 30 E2 AB BD 89 E6 AA 46 9B B1 42 B4 77
 6E 2C 69 D4 B1 05 9B 20 27 34 7E D1 25 22 F2 2C
 9F 87 FE 6F 94 1E 8A 1F 76 B7 E2 C4 BC C8 C6 4A
 A6 16 D6 F1 47 73 CE 4D 8E 8E D7 CA 50 9C FA C1
 46 CF 5E ED E5 E6 90 56 84 C9 45 16 2C 1D 89 76
 25 DA 27 8C FE 53 4A E2 8C E5 97 43 80 DF 50 83
 37 3E 5F 86 D5 74 6C B1 02 4B B2 87 E1 C0 54 45
 FA 50 CC 10 DA 6B F4 AC 23 77 F4 DD 11 87 63 19
 C9 3A 30 2F 26 9E 82 E8 A2 CE D2 A3 52 18 AE 64
 A9 B7 37 2B 34 2D 35 3F E8 C3 37 BF 10 51 38 6E
 43 C8 CF 10 47 14 58 5A BE B6 81 77 87 2A C2 0B
 D6 7B 75 86 DE B6 BA 02 46 FF D9 16 2D B1 70 88
 30 F4 F3 29 BD 17 15 1A D3 EA B2 0A 1C 71 A3 2E
 2C AE 15 2C 51 21 E1 15 D5 34 5B 7B 08 62 B3 CC
 B3 28 11 9F 64 4F EC 24 B9 1E D3 8D 67 91 28 B1
 0A BE 35 CE E9 5A 6A A8 AD 8D 10 2A 15 B9 D3 4B
 FB 19 8C 37 89 6F 62 94 2F E6 D6 C5 2B F3 D7 D9
 58 51 40 FD 51 01 05 55 58 36 42 6F C3 35 1F F2
 DE A0 4B A3 8F 94 47 77 BB D4 F1 36 D7 86 6E 7A
 AF 4E 45 95 3A BA B0 87 55 FE D5 F2 EF 6A 8E 38
 DC CE 04 7E 1B C9 BB 1C F2 5B 5C CD ED 73 10 34
 C1 2E 02 08 A6 55 53 E2 30 67 63 28 AD 56 B2 ED
 AC 16 42 6B 1D 73 EC E7 3C EC B6 F8 1C 51 6B 2D
 B9 E8 87 D1 FB 9A 58 8B D4 B2 F7 D4 1C 4D 95 8D
 D8 A5 16 B9 2C C3 D8 8C 41 70 79 4A 7A F0 5F A9
 F4 9E F4 14 BB 69 DE 37 9F 0C 22 72 BB 5B 52 29
 5C 79 9D 50 B3 2F 00 0D 71 C5 CD 10 6A A7 27 A3
 4D 3B ED A8 BF DA 31 83 63 89 67 70 73 7A 7B B3
 4A AE 51 B8 E7 D2 24 29 B4 1F 3D CA AE 96 F7 A4
 3B FA 66 F0 FF 19 A7 3D 81 84 26 62 B4 CE 6E 7F
 C2 E1 BB 6E 8A 7B D3 58 82 5B 31 B4 67 56 D4 48
 3E FA CA 16 A3 5C 6A FE BE 06 8D FF B8 6A 54 8A
 F8 1D 94 31 42 58 80 09 D4 1D E0 D4 A3 F5 D8 4A
 F1 AB 4E FF CB 6B 3C 10 E0 9A 86 EC 52 86 DA 35
 82 0C 89 06 41 1D B7 1E BB BE 71 F5 8E 24 C5 FA
 A0 1C 1B 4A 1C 53 97 E8 10 45 FE 1D 2F D6 65 96
 1C EE 84 72 EB 4C 24 B2 33 F2 CF 04 1E 63 B2 FC
 10 6C 5E 15 EA B9 ED 9D 62 8F E7 AF 63 42 C5 0B
 51 76 D6 5D 02 5E DD F4 B4 48 8D 3C F3 78 65 9B
 9C C0 A2 C6 56 CC FB A8 DE 62 B4 70 33 61 F0 B3
 AD 7B C9 E1 D4 F1 82 A5 E0 62 23 D1 D1 E0 8B E5
 5A 09 6F B0 84 11 59 FE 9F F0 A3 A4 71 50 91 8A
 3B DF 44 32 1F 85 50 16 B5 70 8B 4A EC D9 72 CB
 CD 51 39 09 0F CF F9 10 20 07 7F 16 70 D4 DF FA
 2E 57 85 93 98 6E A0 5B D0 17 D7 6C AE B5 63 37
 96 4A E3 A2 64 75 9E 63 21 EC 19 D8 D4 06 31 3F
 77 94 43 88 73 2F C5 47 79 D0 2D 1C B6 DC 9B A4
 14 F6 D8 1E 72 CB 80 5C 33 18 9C 78 0B 17 35 D8
 FE B4 E8 40 28 53 89 9D F0 05 B0 B1 91 C0 3A D1
 22 50 BC D2 D4 26 BC 8E 0A 55 27 89 DB 9D F8 F4
 2B BA 4F DF 8E 64 F3 28 4D 36 2B 7A 11 CC B0 92
 E1 0F F7 E4 14 23 5F F9 66 D5 3B 56 10 12 76 98
 4C 3A 5C F6 E2 0E 36 4D 0A 5C 9C 08 EF 03 85 5E
 7D B9 6A 82 00 0A 55 4C 6A 06 9B 92 C4 A8 71 B3
 59 90 AE A1 7C AE 98 2E 2A FD 48 73 02 65 1F 2F
 15 2A 8B FD 5C 8A 61 F5 CF 6C 73 FE D7 BA 74 FB
 0D 99 F8 28 A9 49 94 9E 7E 6E A5 66 42 EA 2D FE
 9B 99 4A C9 BA 43 14 C0 B9 9A 3F 2D 4C 70 7A F5
 55 59 3C 47 0F 6D 55 2A 7A 42 A1 FC E8 3C 43 F6
 5E B2 D2 C1 86 2A 48 CD 20 99 95 36 86 4D 38 F0
 0F 0E 36 CC D0 3F B8 9E DA 68 D1 29 5F 87 AB F6
 93 E8 3F 58 72 29 69 08 7B F7 C2 F6 4C 2F 91 C1
 2D E8 3F F3 AF DB 06 A5 C3 4B 01 F8 02 87 BE ED
 77 2D 27 5E DC E1 CD 1A 46 45 74 99 B2 35 13 24
 09 36 65 E0 9E DD EF 04 C6 D4 A4 B9 13 65 D5 26
 EB 46 E1 8F B0 27 59 16 16 50 60 8E B2 60 C8 BF
 10 0F 65 88 BA 7D 64 99 CE 39 C0 88 17 8A 2F FD
 47 FC 7E 1E FF F8 C3 84 54 FB 80 F4 7B 71 81 21
 53 17 2B 52 97 D6 6F 0F EB 45 CC B0 CB 0D 6C 95
 F1 AF 1B 05 1E 11 06 C6 03 A2 64 0F A5 B0 79 49
 14 DF 43 64 5B 83 C9 2D 26 0F A0 38 BC 11 FA 6B
 A0 68 60 24 34 BC D2 21 79 FF 12 B8 21 C5 D3 89
 68 ED CD 24 3C CA 97 48 DD AB AC 90 D3 A5 3B 45
 47 BF EA 8C 56 AD E8 57 25 01 41 4F DB 06 1B E9
 88 8D FA 4C 5D C3 B4 52 7D 2F 64 C1 05 F7 11 16
 D7 D7 CE A9 3B 7C F3 DC 45 BD FA 13 F5 BD F3 F3
 EF 1E 2C 2D 0D 7C 0C AB 15 F8 31 2F D2 49 98 54
 4D DB C7 66 27 1D D5 CB A4 9D 60 C4 42 0C 7F BE
 35 C9 7C 18 66 C6 29 EF 8B C3 E8 3A A0 30 4B 2F
 8C 6C F0 1F 91 0E CA 79 05 19 AA E7 59 74 A3 2B
 20 96 0B FC 89 25 E0 3A 4E 06 78 E8 B8 75 3F 74
 88 6E E2 CC F1 2C BF C3 B5 38 5E 72 B4 5C FC D7
 43 F9 EE D0 7F C1 EB FC 5A 94 27 9A 34 04 F6 F0
 05 F2 9E 02 04 88 12 D1 2A D9 D0 8B 37 29 E6 04
 80 F7 8E 9D 47 C4 D1 F5 B3 42 83 8A B8 C7 58 E3
 6B 2F 43 6C C0 E7 F7 E6 59 F5 32 FF 0D 0E 00 90
 BD 3B 38 2C 64 B7 A2 FB D5 D6 ED CF F9 19 6E 44
 A4 92 33 20 D2 A6 09 C0 22 E0 D6 DC 66 ED B1 BA
 FD 6C 5E E6 F8 77 94 13 29 C3 50 58 D2 BF 3B C1
 4F CF 68 5D A3 49 BD 71 F2 26 B0 B4 27 65 A1 6C
 D6 34 59 0C 98 D2 D1 DE 56 D3 75 E3 BD 30 CD 17
 56 02 05 30 B9 7C 27 C6 DD ED 78 56 7B 83 45 C6
 90 26 8E 30 56 1D E9 69 F9 C5 82 CC FF 3A EE F5
 9D A3 DE 12 2A C0 CC 20 54 9E B8 06 5D 9A 03 7D
 53 09 20 64 12 AF 9F A2 86 2A 52 81 DD 11 A1 CB
 25 96 96 6F 08 68 45 50 70 8E 9E B7 37 E4 08 5E
 23 6F 37 4D F9 F2 42 27 02 24 20 6C 94 88 FF C7
 48 B4 3B 5F 77 12 D9 76 34 B2 4F 57 A7 04 00 FF
 59 78 32 CA 0F 78 6A A9 3F 16 3A 90 91 2A C3 0A
 19 FD 27 AF 58 33 F7 7F CC F3 02 CB 2E 4D 99 8B
 D1 D0 7D 4A 82 3D EF 35 54 AA 01 53 BC 70 B4 39
 74 99 2E 7D FB D2 D7 D0 B2 25 9D 9E 7B D5 AE C2
 AF 7D 43 D3 51 46 64 52 C8 FD 80 17 F5 3D F0 7F
 E5 DC B7 D7 EB 03 4D 9B 87 BF 27 7C 91 A1 87 87
 FB 30 74 6E 3D E9 C7 AA 51 46 18 54 B1 40 60 B3
 0C 0D C6 7D CE 94 C9 59 56 E2 A5 3B 5C 8F 0C DB
 B1 B5 57 9E 00 52 77 3E 60 86 5E 38 84 87 A9 C5
 A1 0C C6 ED D3 54 CD 05 73 C6 0D 0A 76 32 0F 60
 60 EB 93 7B 34 9C E3 73 8E 0D EE 38 2D BD 4E 33
 18 E4 BC 50 E0 6C 7F 65 97 DC 4E 66 B1 24 D0 FC
 4F 73 A5 C3 59 C6 62 F4 CC 01 81 18 10 44 75 75
 BE A9 5C 0F 86 DB 2C 9C 2E 05 9B 6A 9E F5 91 F8
 FF 63 0C A6 66 1F 3E D5 38 38 14 82 26 43 91 8C
 73 AA 74 4F 18 57 95 62 E9 3F 95 5C 98 A9 21 5D
 85 AD 0C 4A BA 78 E4 8F 3D C8 73 F9 C3 20 22 F9
 CC FE 88 06 DF E9 5F B7 E7 FE 0A F9 24 04 5D 79
 55 04 F0 01 11 EB 0C B0 C7 68 7B 4F 4D 11 44 A1
 B0 93 3E 88 1C 83 E0 FC 75 CA 97 D1 8C F9 32 48
 6A 38 88 91 B0 11 C3 1E 4D DA DF 8B 9A 11 04 AD
 2F 10 C3 C0 72 E0 0A 43 C7 63 81 41 22 7D 62 44
 17 18 BF 5C ED AF FF 68 00 02 BB 9E 77 C8 40 BF
 01 FA 35 AB EC E2 CC C6 63 80 8C 85 ED 1D B0 56
 8E BA F7 6C EB A3 6D B8 A9 99 10 53 E1 ED 5E 9E
 B1 06 0E 64 7B 1B 0B FD 97 5E 52 9E CC D9 9C DD
 93 BB CB 64 59 6A 95 08 84 D6 2B 6A 7C F3 F8 8D
 A2 58 06 54 36 82 A9 25 4D 8D 57 E6 8C C9 FB D8
 1B 77 06 84 7D DB EE 0C 36 4D 7C 79 32 A5 88 1D
 EA F6 36 F9 CA 9E C4 40 96 FC D4 00 C7 4B F6 78
 0F 3C 06 C8 37 7B E2 3D 15 75 78 28 2F 0A 6D EC
 D6 AF AE 60 D4 CB 42 C4 F1 13 46 C5 C1 E8 20 72
 BE 92 A9 79 93 F1 73 73 94 CE 27 09 D3 81 B8 C1
 81 B6 AB 66 DF AD 3E 8D E5 CB CE 00 8C 3C A4 6B
 05 E5 C3 07 2C 40 11 9F AF 0A E5 BD 8D A4 94 64
 46 F3 93 30 F9 47 97 C8 EB F4 1A 2E DF C8 D2 78
 FF A3 48 F1 58 60 D8 12 CC 3E 6A 3B 0F 1D 48 89
 D8 8D 1B 96 AB D3 C9 E6 D0 01 82 F8 60 69 AA 70
 73 53 35 A5 76 B2 34 59 3A 43 BF F3 93 E2 01 AC
 DF 86 83 F3 31 14 C3 AA 36 67 EB 95 4E 9C A1 22
 C4 98 13 41 51 2C AE E2 8F 93 21 2C F9 4E 5A 15
 86 C0 03 E4 BC 5A 02 DF 63 5D EE 97 F5 30 59 80
 C0 88 76 79 31 94 30 B0 6D 78 A0 D6 45 59 FC 89
 6B 66 76 2F BD 10 0C 2B EF F9 3C 48 97 CB 81 B3
 DB 71 98 92 AA 1A C4 C7 B9 53 DC 67 8B 33 BF D8
 0A D9 DB 39 81 6F E1 31 C5 F1 68 25 89 FA E8 9E
 45 74 95 AD FA A7 26 83 13 93 AB EA D7 B4 58 67
 73 26 2D 52 BA E9 72 D8 55 47 80 20 45 84 4A 26
 CC 9B F8 32 E8 59 11 62 53 DE 6D 72 49 E4 A2 CD
 F4 37 FC 66 33 7D EA A2 69 1F 45 46 66 1F C3 95
 66 D2 7C 21 53 3C 5D 89 84 81 CE CD 9D D3 E0 5F
 F6 E7 A4 E3 B3 27 12 23 52 3A F9 03 20 8F BA 25
 70 3F 8A 32 4D 1D 60 3A 71 88 78 F1 F5 0E 11 5F
 88 2B 3E 9B AF 79 C0 BE 34 FA 4A 6C 11 D0 B9 32
 54 83 05 54 10 6C BC D6 06 6D 1D 4F C2 52 D2 3B
 C8 CA A8 40 BE 9B DE 7E DF 3A 48 95 40 D5 B6 53
 BD F2 AE 19 F0 84 80 29 72 C3 0E 5F 3A 88 79 C3
 1E AB 7E 3A 80 78 80 D4 61 3A 7A E0 89 35 60 C0
 63 D8 37 4C 6F B8 61 B7 BB 2A 90 57 F3 63 B7 F9
 DB 80 4E 31 AB C7 7A F0 78 21 01 CD 04 B1 61 A4
 3B CB 47 66 E9 A6 BE C1 4D D4 C2 D1 8D F4 65 D7
 62 3A 96 A3 B9 AC 6A 5E C3 CD 88 01 0E 4F A3 9A
 45 53 FF DC E0 A7 E7 BB 35 9B 43 4D 8E F6 5C 92
 E5 D3 D4 3B D2 65 48 E0 49 13 19 73 4A 29 BE 47
 DE 50 F7 A1 CB B7 79 92 C8 EB 27 55 E6 B0 14 3E
 4D 95 39 80 09 76 B4 AB 50 A5 F7 14 F8 68 8B 47
 20 3D AC CC 96 C5 B3 78 D1 B2 72 EC 19 C8 67 0A
 33 35 20 1E F9 DA C8 43 F7 FB 3D 93 9E 03 B6 C2
 A5 01 96 7A F5 3D AD 00 AB 94 0E D1 9B 73 D8 C4
 FD FB D0 C4 0F 8D 34 79 D6 3C 65 0B DB 0B 60 16
 F4 1E 10 38 B2 7A 10 A5 B2 4F 52 D3 7E D7 BA 3E
 DB 27 7B 27 A7 9C 5F 24 CB 85 C4 35 64 A8 C6 70
 1B C2 B0 76 CA FB 6F 13 DB 06 F3 69 FC AD 3E 54
 0A 00 08 62 89 A0 22 16 B5 06 D5 EE 8F B7 AA D9
 9C 7D 8B B6 57 42 DF 82 B7 64 78 FA BD F4 19 13
 2F E4 80 C4 9B A5 46 A1 C0 9A A6 A1 E8 D0 ED 52
 5D C1 FF C7 22 54 2B A6 0E 8F EE 77 4B 66 F9 2F
 C1 C0 34 40 61 87 CE 09 95 3D FA 1B CC 8A 74 B8
 41 4F F6 27 F7 66 5E B5 24 DE D5 C2 FF B6 4B 7D
 6A 1C FB 6E 2C 63 DA 87 6C A7 AE ED C3 91 D0 D9
 01 9D 43 7B F4 62 47 C0 A2 1B FB 5F 15 2F F1 95
 16 CD D8 DD 72 06 9E 7A 1B 94 B1 80 E0 BA FB A5
 F7 73 DC C4 EA E4 AA B9 95 CD 7D AB 01 32 CA 95
 18 A2 E1 85 49 CA 25 19 A3 F4 20 89 BF 14 4B 91
 BF 48 D8 DC 5B A3 A5 F8 BB 86 AA C9 5F 71 1C C2
 C5 43 9F CA 12 4B 1E 21 2A 21 4F 6C 63 A2 6D E9
 A4 B0 C2 D9 F7 FA 8D AF B7 7C 95 25 75 9C 88 5C
 78 D7 B9 AC 2D 2E 4B 07 83 E4 7B BD 3F EA 52 67
 9E 54 D6 1C B5 72 CD 83 19 13 D6 56 BC F2 2D 7D
 F8 55 2F 14 6A 0C 29 56 81 DF 44 D6 7F 8D C9 94
 20 FE B9 58 85 CC CE FC 28 5C 81 20 6E B4 9F 20
 A3 4C 20 E3 00 6A 44 CA 3D 44 5E FC 2B B5 CC 4B
 8D B0 92 ED E3 96 88 BA 4B AB 85 A1 79 52 DD 52
 51 88 93 B7 2B 3B 29 3E 66 5B 40 B4 0C D8 B2 5A
 E4 DE 52 FA B7 0B B7 D2 E3 75 49 69 C0 C4 DA 91
 BA EB 8F 38 34 72 B5 15 B7 3A BE E7 F9 12 3B 80
 1F 9E 3A C4 ED F9 40 75 EF 0C 4C 77 2C F8 3B CD
 D1 82 6F 3A C2 2B D0 19 F2 06 4F A4 19 F1 F3 79
 14 1C 1B 86 45 4A 0F 7F C0 12 54 8E EF F6 C1 17
 BA 79 B1 9A D6 BF 88 20 9F 7D 29 54 A8 AE 88 D8
 84 A4 13 90 6C BC 99 ED A9 93 5A 24 C2 9F BB AA
 C6 B9 D4 4C F9 B8 B4 1D AB C1 F2 58 5D 54 3E A6
 1B A6 EE 33 E3 65 3F BD 8A 8E BC 53 FC DA E6 8E
 42 EB CC 8E 35 CC CC AB 10 08 AD C7 89 FA BE 0F
 78 E7 D5 30 E6 96 53 81 88 26 88 94 48 08 CB 73
 BF 3C DC 6C 5B 92 39 42 80 53 BF 3D AB 53 FE BD
 3F C3 2F 96 D9 B8 F8 D7 B6 89 93 D4 C8 2F 50 D9
 C2 E8 43 D5 97 82 A8 96 0C F5 A3 29 24 A4 6E 26
 6D 41 97 60 BD 43 80 06 52 E4 A8 3A 0A 26 7F 70
 E7 DA 01 AD F9 51 19 A1 94 4D 25 51 2E 46 7B 04
 F3 60 34 48 76 B6 38 B8 86 A6 AE 5B 4A C9 BD EA
 9C 7B D1 56 A4 7C A4 3B AA DE BF 0B 1D 4C 02 11
 46 C1 82 9D 9F 1A 92 98 2A 96 90 4C F5 C4 95 1C
 93 E8 11 8E 60 8A 36 DB D3 92 F5 19 65 5D FF 15
 42 72 29 66 18 D0 D8 6B CA 2D 50 21 8F 5B 78 F3
 62 7B E5 22 FD 3E 4C 5F DB E1 52 B1 3B 20 68 0F
 5F 34 B3 2B 84 F2 6E B7 56 BE AA 62 D6 28 B6 E3
 DE AA 37 74 F4 06 24 3A EA 0C 38 C4 A1 11 39 75
 07 01 44 19 A1 2F 98 67 EF 10 99 2A CF 8F 69 25
 8A 4B 5B 25 CF EA 7F 5B 83 81 0D A3 A5 C2 71 87
 4D 77 B5 8A 9F 1A C3 E2 7A 9A D7 66 11 1C 76 C1
 9E CF 8D BD 8F 3C 03 69 96 01 A5 50 9E 44 72 B0
 15 E4 F5 95 A9 78 1B D2 57 98 8F 9A 55 ED DD 69
 F7 87 CE C6 AD A5 0C 96 01 CE 02 55 0A 52 D7 81
 B1 8E B2 7E B6 A1 AD 0B 0F E4 0C 57 C6 4C D4 A9
 8B F7 18 C8 D3 0B A3 59 6A B4 EC FB 0F DD 32 24
 4B 3A EA 14 88 DC F5 01 4D 5F 37 96 98 41 30 09
 7F B1 44 46 A2 F2 04 A8 DE EE 69 EB 1B 8D 9B 41
 00 4B 1D 81 D0 15 E2 FE 29 FE 8F B6 78 C4 DF 74
 DD 4D E4 AB 94 4F BF 09 15 77 7D 9D 6B EF 85 12
 50 C5 52 5B E0 1A 72 40 84 54 AA CC 5A A1 9C 7B
 D1 D6 0D 19 71 87 8B 66 9B 80 B1 5C C6 79 0E D0
 E0 96 97 02 AF 10 74 A1 5A 23 52 A0 4E C4 AB C6
 F8 DF 4F 4B 3D C4 85 EA 45 4B 22 5D F2 C0 BB 88
 A6 EC 45 10 EF 47 D6 D2 E7 AC BA DD A0 38 F3 5D
 B6 BF CC 4C 66 30 C0 AC 03 BC F8 D4 B7 8B EC 6C
 AA D2 47 D1 9F 4E 57 07 D7 41 9F 2A CF 7C 58 C9
 A8 5F 8F B5 C8 CD 41 28 57 C8 90 F1 E8 CC 09 E8
 19 CD F2 26 E1 75 5F 4D 24 31 74 E0 40 55 E3 1A
 DA D5 B6 B4 12 F6 D3 61 D2 8B A0 C7 87 52 54 09
 D1 72 21 C0 B4 2B E4 74 B6 D5 7C D2 4D FE 8A FF
 57 86 57 90 68 6B B4 77 12 41 F6 71 12 59 89 53
 B1 FE 7A FC DE 4B 41 FE F3 F3 99 62 B7 9C D1 48
 50 4F 5C E3 AE 75 65 F7 6B 5F CB 28 E8 DF 4A A3
 81 A0 22 65 FE 47 F5 43 F9 FC 34 78 F3 D7 B2 35
 7E B5 2A C3 61 26 3A 53 58 D9 24 4C B0 54 BE 9A
 95 D4 7E EF 5C 14 87 44 6C 26 D7 8A 5C AD 2D DE
 05 0A 08 7C 99 45 D5 89 7D 90 29 5E 61 DB EC C0
 DC 3D BE EA AA C6 E8 C7 30 08 98 92 3B 6C D0 69
 09 57 4C FE EF ED 8E 09 F9 81 E9 6C AD 3A D0 E8
 4F AC 33 96 AD 35 9F 88 7B FD AF D7 57 9C 12 B7
 82 9B 21 7D B3 8A 49 0F 03 BD D1 19 39 B9 0C F4
 9E 55 89 A2 DC B4 A6 DD AF 4B 2E 09 6B A5 03 AF
 21 7D 4D C3 56 D5 E1 F0 3B 89 FB 4B 0A 49 39 8C
 0E 7F EC 89 AD 77 CE 4D CE C6 B8 07 4C 71 FB AF
 AF 86 B0 01 EE 81 41 E2 9F C6 2D 07 EB 1F FD A0
 C1 4A C6 B8 D7 66 F4 26 16 27 77 4B 2C 12 BC 38
 9A CE EE DD D8 E9 0A D0 18 35 5C EF EA 98 2B 26
 AD 3B B8 53 CC 53 AA AB B4 CA 9A AA 11 AF 4C 2E
 23 92 51 17 61 5F FF E5 1D D3 CF 0B D6 83 E1 2D
 48 06 20 EC 5A 5C E7 07 1E A1 94 13 85 65 E0 2A
 14 3A B4 28 B2 38 38 0E 41 64 C2 9B 67 BF 64 41
 59 F3 09 FD FC 36 6C 96 54 B4 60 02 88 C2 98 CA
 DD AB EE 93 1E 00 C9 BA 21 B6 3D DB 21 CC BA AF
 F8 C1 22 ED B6 39 01 B5 BD 92 2A E0 85 2B D3 AF
 C0 59 9B 46 4E 7B 93 5D 51 E0 C1 9C 29 38 03 33
 C9 C1 53 A9 6A 47 F8 BB 1A 89 84 70 93 68 34 EB
 F8 96 E2 9F BE 19 53 49 9E 5D 18 A9 4F 2A 85 95
 0D 31 00 80 81 DC 83 20 DA 63 8D 43 10 E3 19 53
 B0 11 39 2C 93 0E 7F 5F 5C 34 AC 7E 84 33 84 FC
 71 55 A9 E9 46 AE BB F0 07 39 16 FF 11 C9 51 5A
 51 CD 2C 9A A0 33 E6 17 0E D6 DC EC 14 41 0A 9F
 F0 7D 93 6E D5 1A 2B 10 81 86 67 C7 A9 76 5E 54
 47 96 57 ED 3E A8 5C 24 5F 78 C9 46 3F 31 25 11
 B5 00 7E AF BF 93 FC 71 F7 F8 EF E7 14 BA 24 93
 45 D0 79 31 CA BA AC B8 CB 69 D7 9D 51 5D F7 DB
 D3 92 9F 2D 6C 86 D4 29 06 6B C4 8A DA 49 8C D8
 F6 3C 63 6B 20 D8 DA 6A 6E 0A 5F 0D DF D4 A0 7A
 3C 3F 8A A0 39 D1 EB 00 1A 73 30 E3 C0 86 5B B8
 F5 A9 C6 CD DF 1F BC DB 81 FD 00 A6 F7 3F 24 33
 07 A3 DB BD 3F 64 6D 2F EF 71 A0 D4 32 E4 71 CF
 0E 22 F6 86 3A F7 3D 58 4D 42 91 71 38 E8 11 57
 E6 35 95 5F 15 8A B4 A5 D2 33 80 CC 39 3C 83 D0
 04 BD B2 6B E9 E2 67 B4 75 49 02 D2 0E 28 22 02
 1A 1D 75 CD FC 9B 05 B0 18 1A D9 A7 33 44 FA 56
 2A A6 E2 E0 2C 53 08 BD 99 09 FF 4D 28 FB 23 7D
 E7 13 56 50 5F F3 C1 F1 4D 70 E6 A7 F2 A1 D1 A5
 F7 A3 03 98 3A D6 83 93 85 76 97 6D 62 5D EF D9
 F1 CD B0 98 84 14 F0 88 26 09 20 CF 80 EB A9 42
 00 28 25 67 A7 11 8E A4 2E 63 3F BA 2B D8 64 AC
 16 03 19 4C 04 B8 4C 46 D6 F0 D3 F6 E8 B2 A9 85
 1E 92 57 95 42 6F DA 57 69 48 E2 83 12 16 C3 62
 9F DF 12 7D 08 3F 86 72 6F 84 66 C5 A9 0A 7A 1E
 F7 48 07 B5 44 B7 DA 1C F1 23 3A 1E 1D 55 30 EE
 0D 8B 1C D3 C6 D6 50 DD F3 3C 0E 62 F3 61 71 45
 B6 9F 86 1E F4 A5 24 1E E0 BB AB 88 4F 27 3E B3
 7B 40 5E D0 B2 58 14 ED 2D C0 6D 4F 07 3D 08 8D
 72 B4 4D 97 51 90 90 18 73 C8 99 60 74 EA CF 35
 10 8B CE 5A 43 C7 F8 01 1E 54 78 0B C9 FD 41 3A
 CF 45 DA D0 1A 61 E5 CD F9 FC 62 BA ED F7 A9 BF
 8A C8 9F B0 A4 B2 C1 3A 2E 57 10 E0 57 63 50 86
 59 97 F4 06 C3 60 C9 19 38 18 B0 3C 49 1B 65 90
 26 12 80 6D 3C 22 F1 05 27 B1 DB A3 B5 8F 88 C3
 2E BF 16 84 EC 52 ED 3D D3 CC 68 58 96 3A 64 4B
 37 B6 4E 5A 58 E3 CE 72 CC 83 2F 24 55 62 CA 54
 55 8D 83 A1 C9 E0 42 C4 91 1C 8B 9A E5 BC AD C0
 EF 19 3D F8 F5 5D BD 49 20 1A E1 D9 1A E6 1E 25
 26 0E B2 AE A2 1E BA 26 27 2F BD EE 4B 43 AC BE
 24 69 E0 85 CF 5E D8 60 88 A0 E1 F5 25 58 95 0E
 6D 32 1F DE 4E 94 10 21 23 BC F1 2D 84 13 7E AA
 60 CB 64 85 AA 02 73 98 9C 8D 87 84 D8 D9 1C 20
 80 D7 51 50 83 75 BA ED 23 E1 B9 03 13 80 D9 61
 B3 4D 22 3D 3B 49 13 A0 AA 27 81 F7 81 30 10 28
 96 EA 87 CF 8C BD 29 7A 50 9D E8 21 EB 66 21 A1
 6D 1C A2 B5 60 A2 A3 CC D0 30 51 CA 8B 68 F3 D8
 CA E3 A0 59 EE 92 EB 25 AD 70 F9 1F 16 80 97 79
 22 B9 D7 72 12 2E E3 DE F7 59 39 C1 11 05 B1 00
 3C BC 9F 1F EC D0 79 66 0D 6D 7E 8F BA F7 0D CB
 3E F3 EC 81 22 A6 5E B1 3B C6 C8 46 D7 11 23 A2
 9B 85 F3 58 16 98 67 8A 89 A3 8E 4A D3 FE A2 A1
 51 72 1C 88 93 D5 98 9A D5 0C 7A C2 3D 8D 6C EE
 F4 89 A3 5B 77 C9 70 7A 14 0B C3 55 16 26 3D 3B
 8D 93 21 1F F0 83 21 4F C6 CE 6C 4C EA F1 93 0A
 30 5C 78 4C FA EE 14 D3 7B 32 EE 30 EC 9F F3 75
 BD CE 65 24 59 5D 88 C7 19 CE 58 6D E4 F9 C3 A4
 25 7E F3 7C 4F D0 A9 8E 8D 10 17 56 ED 18 39 3B
 1E C7 4F 99 DA 16 25 25 89 E6 05 B9 7C C5 D8 85
 1F E5 4C 46 97 A9 AD 7B 3D 98 32 D2 53 2F 73 88
 F7 0A AC A8 DD 29 E3 0D 98 DD E6 99 7F 7A 0B 69
 8B B7 BA 9B 56 62 9C 32 D4 8B 4A F9 47 C8 35 FD
 98 09 EC 94 26 C2 9A 99 78 46 3A 25 16 6B 83 12
 37 1F 1E 22 01 8D 8D B6 43 11 E4 C4 C6 1B 56 FD
 F7 7F 23 36 BD 73 CA 22 FB 61 F5 42 1A EF 48 C4
 DE 75 21 A5 90 57 D2 3B 5D 41 3F 44 DA 9D 56 9A
 15 59 1E 94 F9 BC 9C C6 30 77 43 9F C0 B9 09 53
 1D CA 07 77 AB 33 4E A5 DD 37 0F 22 05 19 1A 1D
 FD 26 7F E5 4A 27 E8 23 18 B0 92 20 FA 23 F7 A3
 54 94 B8 67 47 D5 03 79 9F F6 95 6C F0 28 03 3C
 5F 4C 26 38 04 99 F1 80 5C 02 AA 43 76 83 FC C6
 4D 73 38 3D EA E0 F6 EB 07 4E 1E A7 7E 47 65 33
 0C 9D 4A C4 46 37 E3 02 23 EC 13 5C 96 A2 AC 8D
 49 91 99 F7 D7 B4 3F 4C 84 5B E4 8D 44 6B 7A D9
 50 24 4A F5 0F F9 76 C8 8A 29 65 CC F5 F7 C8 6A
 DB 00 1D 47 69 75 CF 3D FF 2E 73 D2 AF C8 B0 61
 B6 98 04 2A 10 AB 1A 3D 3D 14 84 8A 2C FA B7 55
 7A 94 E1 4D 93 FF 8E 8E 2E 56 7E F0 00 39 D5 02
 E6 3B B4 E6 C8 F9 EE E0 24 DB 33 00 95 77 3C 49
 37 06 13 14 34 C7 88 9C D0 2E BE B7 32 B8 34 35
 9F 5A 9C C7 EF A7 F5 E9 07 FB 70 C4 2A 88 87 CF
 7F 51 FB 0A E2 26 DD 73 E3 A6 AA 1C 60 B5 2A 90
 4F 7B C4 C0 60 84 F5 50 96 AE 4F 9A D5 D6 BF 79
 60 F4 CF BE 63 D6 52 71 1C 77 45 D5 92 4C 38 AA
 DB ED 2E E2 32 FD 3F 89 D8 F9 09 1F 4A 6F BA CA
 06 CD 3F 60 87 66 0F 09 7A 66 13 66 03 23 18 3D
 34 F7 87 0C 41 05 E2 5E D2 29 8A C4 27 88 72 70
 D5 96 A4 B1 BF E1 3F 8A 6F 75 4D B0 33 DC E7 7A
 AB 4B AB DF 91 40 63 1F 6E 46 C0 5C 02 B9 4D EC
 61 33 08 2E CC B8 43 E7 09 E2 2B B7 FC 29 1D 71
 A3 4F 40 2C EF B6 A5 04 FA BA 9D CA D4 A2 69 4E
 2E EA 2E 9B 1B 2E 6C C9 63 B6 E4 92 4B 7C D4 41
 FE 31 8E D9 E4 59 39 7A C0 6C AC 0A 57 4B 88 F9
 3D 5E 8D 01 AE 44 00 69 B4 1E 49 F6 42 05 89 AE
 28 D5 88 BE 72 C6 AA 54 3C F4 55 13 3E 45 E7 C0
 91 C0 55 DE 26 D2 32 1B 0B E1 57 DF EA 43 3B 58
 DD 98 67 0D 07 15 06 5C C7 A5 E3 5F D4 E0 59 EE
 4B 7E C6 7F 0D C4 15 71 AB AC 42 06 25 FB 3A 82
 3B 82 2E 24 CC 33 B0 BD 17 EE 86 92 E2 44 4A D9
 AB B1 B6 08 E1 D4 03 BE 8C 07 A8 2E B8 74 B1 13
 80 71 34 7A 88 5B 29 CF B3 1E 55 11 0F BA E0 12
 7C 8B 62 A4 94 8B 76 4C 90 F4 E4 52 D3 99 E1 AC
 1F 9F 47 9E 22 9B E2 C5 BE C5 B6 8D 34 55 9A F3
 71 9B CE 48 E1 BB 73 2F 53 4D A8 2A 41 57 CE B5
 70 BB 45 90 0F 8E 78 47 6E D3 24 3C FA E8 37 3F
 6F 74 57 93 59 1D 87 A0 FD CF AB FC 7A D9 13 53
 32 2E 64 65 76 28 48 72 16 26 D6 C4 86 B7 D4 3A
 C7 E7 78 2A 79 26 94 25 CE E2 1E D2 D4 69 88 97
 81 9A 30 A2 9F 41 B8 0B DC 2E 88 6C EB 80 1E D1
 67 F4 09 92 11 89 95 FD B1 42 73 3E FB 1C 50 52
 DD 17 9A 94 E1 7C 03 27 F4 0A 92 2F C1 F6 EB 8A
 8C 8F 43 83 F7 70 61 AE A1 6C 55 D3 9B 24 DF 98
 C2 EE 32 77 54 4A C9 FB 9F 78 93 68 00 C9 CB FC
 9C C5 CC AC 0A 6F 52 B9 C6 27 34 4B 2C 42 10 8A
 A6 5A 4D 2E B9 27 11 77 51 C1 04 D5 C5 46 68 E2
 30 BA 21 5B 6C 99 EB 99 78 3C 16 82 13 4B 32 BC
 9B 28 41 77 91 E3 92 6A A1 A7 62 FA D9 BA A7 B4
 BD 13 CC 09 F1 AB CE 82 46 6E 78 B3 4A 80 BF 23
 8A 7A 50 EF 74 5E 3D FF CD 8D 96 FA B6 BB F9 EF
 55 96 B6 40 6E 84 C2 B9 28 F0 3D 57 B0 E2 02 A5
 1C 79 C6 13 6E D9 DB 63 35 51 CB 55 84 EC B5 48
 43 ED AB 7A 43 9E 3D 0F 64 C1 FB F6 98 0C 03 48
 A0 33 87 C6 36 E5 86 51 87 28 D5 32 34 EA 7C 3E
 44 C6 EF 29 D1 E1 28 36 08 B2 CC 17 AA B6 09 79
 DB 87 88 4A DF A7 5A 83 A6 79 E2 4E 33 C0 F9 C5
 DD 3C 95 CB 34 CD 83 CD BE FA CE E3 E4 2B AF C0
 E6 4C AD 11 2C 4F AA 30 A0 93 9C 71 6C D9 78 C3
 07 D2 EB F0 7A C7 7C 0F 3A 48 9C 25 1F 30 72 B4
 5A A2 89 DE 2A 70 3C 12 AA 06 B8 48 6F D8 CC AD
 80 FB F4 36 8A 1F 92 34 4F E1 FC 5C A3 FB 39 CB
 8D 54 7B 78 D4 B1 6D 6F FA CB CA 70 D5 5F A4 E6
 29 FB F8 33 1D 42 96 EE 1B 43 70 90 FD BA 86 09
 E1 93 B0 D7 3A 19 C6 44 F5 04 42 06 BB BE 2A 8D
 E8 4B 62 66 46 3F 98 3E 62 42 20 94 D6 0B 26 E5
 06 9B BF A0 7C E6 67 6E 68 87 12 1E 0F 02 C3 AE
 F6 AE B5 BC F7 6C AC 6F 1B E4 FE BE 8E 93 34 B4
 98 19 15 82 35 A0 59 CD 29 9E 5C 76 44 6B 49 65
 B4 0A 48 D5 FD 90 74 0D B2 A7 36 21 A1 31 37 E8
 A3 0A B3 3A D9 B3 37 D0 A9 79 B7 06 CA 4B 6E 15
 88 F0 36 DA 02 B8 BA 0B F8 78 5E C4 65 20 72 0A
 FE 06 62 A7 81 7D 76 7B F1 FC BB 6B 14 C9 25 36
 28 B5 DF FA 0C F4 2A 57 ED 11 95 10 82 BC 48 7E
 0A 7C 1A 80 9C 29 7E 41 71 98 C8 D7 EE E2 0C 8E
 01 8A 3C 4F 2B E5 D2 0E 24 DB ED 3F F6 71 7E 46
 9A CC 3B D6 B3 1C 21 7B 38 D6 9F B1 BB 1C D1 7F
 29 38 95 58 63 9B 71 BD 08 38 DB C1 B9 DC 95 E7
 93 1F B9 4B E0 FB 62 6C B4 35 F3 C2 74 4A 5D 80
 92 7A A6 8D 37 6E F5 7A 5A 47 D6 F1 E2 13 4A B7
 C5 44 42 7F C3 D5 59 1E AB C9 FA 07 D3 0D 69 20
 FF 78 01 40 63 67 86 32 F5 86 1C EA A5 11 3D 88
 6D 64 86 8C 73 A4 53 46 3A F5 FB 31 78 D6 CF 7E
 03 CF 7C 45 F1 17 0D FA C4 06 68 DB 95 67 66 32
 3D 99 31 0B 0C 8E 30 62 46 FF 58 C8 FB 71 50 D8
 0C C4 88 67 0F F3 39 12 DF DE 10 08 8E B9 83 AF
 F8 7F EF DC 03 89 0E 2A DA 55 1D F6 1A 01 C3 DF
 41 F1 5B 71 B9 E9 1A 3C 01 F9 96 68 0A BF 19 6B
 FE 67 58 DE 94 06 93 78 C3 F7 EF 84 6D CC 3E E6
 72 9C 94 C2 2C 4D 7A D6 2F 17 20 AE 85 42 49 46
 69 7A 7C 68 AD CA A7 BC D7 DD E5 21 96 68 63 F2
 46 D8 2F 9E A0 BB 3D 5C 0F D0 95 01 EE 45 81 FC
 81 09 90 84 36 C9 69 05 D8 2F 65 17 7A 4F A1 9A
 9B 60 80 35 6A 00 4D 14 A9 E5 0F A3 D8 36 C0 86
 AE C1 A1 72 87 A0 AA 0F D5 42 43 DC 8D D3 3B 8B
 8C 29 2D 76 97 EC C2 60 B8 AF E8 D3 FC E9 9F EB
 33 41 AA 56 09 8C AF DD EA 53 CF 58 CE 44 21 89
 50 62 DC C5 63 3D 12 51 A4 0A F9 0F 0D 4C 74 45
 FA 8F A8 C8 6D 0B 2C 7B 6E 61 81 00 9A 2D F0 01
 3C 4C 12 77 85 7B D2 F0 F4 89 FC F4 31 99 36 AB
 C4 32 D1 14 7F 41 38 4C D2 77 DE 00 A7 AA A4 78
 DD 1A 49 FB D0 28 04 13 42 93 2D 3A 30 A7 90 52
 2C 40 4E 82 71 AF 4A 16 00 06 42 95 94 0C E3 09
 07 E1 87 CE 0D 0E E6 7D 66 65 33 D9 E9 34 A2 45
 A0 A0 82 52 78 D2 36 19 70 1F CD F4 31 17 41 53
 36 31 F0 00 19 DC C5 94 43 C8 F0 E2 6B 21 E1 5E
 1C 15 E6 63 FA 24 F3 32 AD ED 7F D6 82 41 A2 D4
 1B C6 8E 8A 85 C3 F7 A9 B2 EF D1 7C 9A DF 42 75
 0D 22 64 D3 3B 44 97 BA 9C 69 5D 63 0B 68 B6 35
 44 E1 6D DD 9E C2 9C 89 0D 80 7F E7 E1 A6 0F A7
 94 6C 13 AE 1D 3B 1D 3D DC 9C 10 97 02 B2 A0 4F
 3C 7E A3 FF 41 23 18 4F A4 49 79 6C 87 A6 9F 03
 CA 09 6B E8 07 C4 E7 FB 17 62 E5 82 B9 D6 83 69
 CF 23 9E CB 81 91 F8 0C 9D D7 A8 26 91 EC D3 16
 C5 53 4E 4A 17 48 4E 8F 92 AE 18 A4 EE A1 FA 47
 A1 98 D9 5C 4F 87 31 5A 61 E8 65 61 2C 98 E4 1C
 AD CC C8 58 E6 A7 84 41 69 3B A7 D0 DE C0 4B E9
 F3 2F A4 A1 CF E2 DC 56 35 1D 46 67 A4 A0 29 5D
 93 24 FC 78 2B A3 5F E3 5E 8D EE 48 8D E5 44 8A
 78 39 9C 51 89 FD 84 ED BC F5 8F BF 82 46 39 8A
 2A 53 33 14 BA 6E 54 7B AF 2A 1D C7 79 A4 FC 68
 29 D8 7D 9D A3 44 15 6D B6 B0 31 C0 22 AD 99 7C
 93 1E C3 79 D6 D0 02 BC D6 35 05 CF 73 94 3A DD
 E2 D8 90 40 1C 82 48 A4 A1 FA 99 4F 99 D1 32 AB
 3B E7 68 26 53 2E 5C FF 12 01 D6 D5 7B 71 4E 63
 D9 A8 4F B1 38 92 71 E6 B4 CD 5C 4D B0 B7 21 D4
 01 BA E7 A4 74 28 9B A2 CF 7B A1 3E 71 EE 66 8B
 E0 E3 C3 A2 E0 DC 4B 9B 51 A3 10 64 6A 9C EE A7
 20 63 39 FF AA 86 B1 3C 31 6A AA 1D 26 BF 43 23
 E5 41 8F F2 34 88 27 D4 92 83 86 4D F7 65 00 D3
 79 1A F3 8F 8F 21 79 14 57 46 65 A2 76 3B 91 93
 AE 11 B5 39 85 07 2D 4B A7 72 02 81 57 2A C7 B8
 18 1C CC C0 36 7A AC F3 57 99 CD BB DA C5 BA 05
 9A 12 B6 F9 FB 34 1F BA D2 38 2B 5B 6C 92 65 1B
 B9 C3 A9 46 DC AD AD 14 FD 52 F9 91 CF 34 12 0E
 48 73 0A AA B9 B6 73 92 39 16 6A 1E CF 56 BC DC
 08 3C 05 1A 8F 59 93 52 79 FB DA 44 F0 D2 81 10
 05 7D 19 A0 DF 6E 5A FA 90 F9 51 3C 37 16 D9 42
 AD 8D 47 89 ED E1 2C C6 96 6C 85 BE FE DB 50 E2
 43 AF D5 B1 0A B4 78 F2 63 FA 0C A6 7E D8 9D B2
 09 D8 68 B6 AF 83 D0 A2 5B A2 3D 1E 24 50 DB FF
 52 92 3C 0F 93 52 51 BF 25 B2 FD C1 5D CF 54 EB
 A9 35 86 0A E1 CD F5 B6 57 A8 6E 27 94 19 5A C3
 0A 8D 2D 63 76 3E EB 10 8B B7 F0 B5 9C 8A B7 FE
 AC 45 95 D6 E7 95 A3 58 96 F4 96 98 A4 F3 5E E7
 16 C0 F8 43 88 D6 D5 29 91 E5 3C A2 75 0F 52 5A
 C4 0C 89 EE B3 3F F4 A4 E8 EB CB AB 08 03 25 9C
 15 22 BA 21 ED D1 F5 8E 36 8B 15 72 F0 71 72 BE
 2A 82 64 DF 39 96 FE A1 96 F1 C7 5F 51 AA 06 07
 85 F2 8C B5 00 E8 4D 9C 36 F7 7D 15 AF 25 BB 94
 C9 08 4A D9 79 DE E0 8A EB 9B 1E 45 2B D9 F8 1D
 92 B5 8F 49 A7 EA 64 91 96 56 D5 98 7F C5 85 BF
 2C 3A 09 50 75 5E 9C F3 C3 FB 8B 02 DA 82 D7 99
 7F ED 56 84 10 E4 74 0A 89 E6 57 98 C4 08 3B 50
 C9 E0 A2 1F 04 D5 A1 52 31 5D B1 05 F7 A9 A0 A5
 73 CB E9 70 46 96 AF 1F 95 F7 40 2D 3D 23 EA 89
 F4 A0 2C DB 8F 24 93 40 CC 64 A5 02 68 9B FA 08
 E9 F7 67 5A 01 46 98 BB 2A F2 65 A6 97 14 5C 0A
 33 32 CC 91 E7 87 45 0F EA 1B E2 A8 CA 2F BA AB
 06 E5 CE 2A C6 C8 B0 F0 FA AA A8 C8 76 20 F9 9F
 79 B9 27 A8 BA A2 AB D7 A9 01 44 0C C2 EA 95 71
 BB 19 DC 2A 61 0F 5B 5C AB AB C1 F5 AD F2 25 58
 65 B5 56 45 62 9D 8F BB 54 5D 09 ED 6C B6 D2 27
 F0 3A 1A 15 9C C2 0A 65 97 61 95 35 ED CD 05 67
 C9 CA C3 5A 8D 07 38 7E 20 BE 60 64 B6 48 A7 D0
 ED D6 96 E5 E5 62 A9 A7 17 80 14 37 00 F4 6E A2
 CF 1F 01 EA 89 D4 FB B3 32 16 EB 9A A0 14 60 FF
 57 75 E4 ED EB AE F5 0B 7A B5 6B 1C A2 10 0B 98
 FF F6 39 D2 7B 86 D5 76 B2 DF 35 3E 4A 80 4A 63
 21 47 5C 34 42 C9 B6 C5 D2 8C 4A 48 66 5A A1 B6
 E9 30 BF 0A E7 48 72 36 E1 90 4B 62 E0 BF AB 35
 46 1A 3A 3E B5 FE 0D 40 04 53 27 78 2E 1B 7B 1C
 51 7E 93 D8 33 1A 46 C5 FB 41 E5 B3 D3 41 78 2C
 AA 54 A2 24 E6 8E EE 9B 39 18 9A 8D DB 6D 14 43
 3A B0 2F 63 BD 22 E2 62 5F 98 D3 A9 BD 5E 3C 70
 28 1F 39 84 40 95 55 8A 76 9F 37 15 54 2D 72 17
 F4 5B DA 1A 1D 80 60 BE E3 A9 EB 8B C7 4D 0D A8
 50 2D 0C 11 A0 1B 42 B1 D1 23 0D A4 32 C3 AD E7
 D9 7B 31 FC 19 C2 6A F6 13 8A DC 6A FC 23 54 85
 B1 8B 7A 3B D2 EE 16 D4 21 58 94 EE 1F 15 7D F4
 3F 00 69 EE AE 78 74 DD C5 2F F6 E8 3B EA 24 A8
 32 5B 67 70 31 B9 48 D7 3E AD 7D 49 2B 8C 3C EA
 EA FF F8 1F CA E2 A4 EE 9A 46 4F 12 3D 81 EB 47
 C8 21 43 43 06 67 B9 3F 8B 50 2E 58 AE 6F 8D 19
 7B 2D A6 2F 47 7F 59 32 58 63 32 D1 31 60 4E 55
 2E 2C ED 0B B8 9F C2 05 76 D8 E3 2A 59 C9 DC 97
 C0 6D 2D 58 79 0F 15 2E FC DE CB C6 3D C8 F7 22
 D2 2C 5D 5B C8 DF E8 4F CA 10 9F 9E 0E 6F 72 23
 FD 82 F4 13 0D 39 15 78 E3 FA F3 DA B6 3A 42 DA
 B0 68 BF 7F 4E 3C BB 9F AF D1 E7 18 1E DF 2E 39
 9D 3C F6 B0 17 CD A8 84 BC 66 F9 9D 74 06 A5 DD
 8A 70 56 41 43 CB 6A FF 5A C1 17 91 3B 58 33 61
 74 A0 52 FE 69 01 69 3C 5A 5A 81 92 62 19 77 08
 9B B9 C3 B6 50 D3 56 8A 7C 07 E1 2D 28 0D 18 EF
 E1 3A B9 61 21 A7 8E A1 A2 AC 5F 00 B0 CD E7 C9
 F1 A1 63 A9 29 00 3F A9 E2 0C 73 4D CF 5D 6D 82
 29 0B 8F B1 80 21 FB F4 39 7D D0 76 05 B3 A0 73
 47 60 97 07 1B 92 93 24 65 2F DD 34 10 C3 AF 08
 67 B1 53 7D 7B A5 46 8F 7C 35 1C D7 5A 6E 6E 1A
 BB B9 BC 03 22 F1 28 C4 B7 F9 A8 E0 2E 43 57 43
 27 22 D6 A1 37 26 D8 66 0E E3 C1 4A FF F8 61 35
 63 D5 4C C5 2E FD 7E EE 1E 09 F5 60 9C 74 6E B0
 B5 B2 65 ED DD 6F 9F 12 4F 3B A1 03 F3 50 32 C9
 BE 72 0F CE 47 5A 7A 20 25 CB D0 06 63 B8 8B B8
 76 B3 34 AF 61 B8 E2 62 E6 57 36 F6 FA 25 CE BA
 7B 48 03 9D 16 7C B1 E5 65 17 0B 29 4A A8 04 60
 63 35 AA 1D 5F 9C 20 D2 D7 81 CF 6F 71 81 88 18
 C6 B0 22 F9 4F E5 93 97 F8 76 E9 39 C1 94 B7 39
 12 E3 48 05 25 CC E9 2A 90 A0 78 B7 5C 72 D7 9A
 30 24 8A 0B EF 43 32 CB 3F C7 9F 1B 83 D4 95 50
 BC 91 70 34 9A 88 AE 68 B4 BB 7E 0C BE 69 7A 66
 43 DF CE F2 82 4D 44 00 64 AB 78 BD 93 1A BD F6
 26 9A C6 38 C8 75 3A 24 BC 9C 7B A0 F0 B2 07 ED
 6B 14 61 53 97 F6 E6 E3 1D BF 05 9B 54 58 AB 64
 94 FF 4C B8 45 A1 6B C2 7C B9 C5 4B FE 39 C6 00
 09 F1 EB 45 26 88 63 C4 94 EB 35 C8 32 58 7C 07
 1C DD F6 C8 29 F9 96 A8 01 42 27 E6 07 74 47 CC
 4B 26 CE 72 6E 8D 95 D4 BD 8B 66 54 57 C7 F1 FA
 12 F4 7B 48 42 C5 6E D2 A2 D2 A1 69 5C 16 69 60
 C7 95 5C DA 20 51 5F FC E7 55 2B 3D D4 35 65 65
 9F F9 8A C7 EA 35 2E 6D 7F D2 4C E6 7C B5 F0 DF
 34 7C 50 90 61 2D 98 EE 11 E4 CD DB 7B 7C 0E 5F
 D7 71 07 E6 1F 9B D7 EF 08 4A 06 1F D1 AC 3E A9
 43 84 82 06 A7 CB 49 68 BE AC 18 28 20 E7 36 44
 67 32 C8 0B 63 47 C7 28 9C A2 DD 9B 8C 89 38 01
 01 1D C7 D8 33 DC 18 97 32 7A D9 F5 99 73 40 89
 56 FC FD 52 B7 CF 8E 1A 10 6C FE 0C 41 A9 61 F4
 86 37 88 24 19 F0 7A E6 B1 E5 D9 30 63 37 43 31
 3F 63 45 C4 08 9F 99 52 21 45 9F 09 FA DD FF 4A
 FE A3 92 7D 6E E0 2D 84 B6 42 D2 55 16 37 D6 A2
 5C B9 E2 D4 1F 2F 7A AC EB D2 10 A5 C2 19 C8 9F
 0A 86 F3 E4 AC AF F1 39 02 DD BA 13 D2 8E 15 8C
 EB 2F 0B 4A C1 3D 0E 6F F7 D2 BE 44 CE 91 EB C0
 88 A1 4A 34 04 2F AB 62 14 99 99 E0 80 1C DB 89
 A6 98 17 7F 01 3F 4B A5 92 3B AB 46 FF 56 D6 61
 C1 7A F0 DC 3D E6 9D 02 47 83 4B 9A 52 E3 18 1A
 A0 70 19 C1 29 85 56 8B 4C AF 18 3A A7 E3 85 24
 18 83 CE A6 AC 03 B3 12 A0 C0 51 8B D6 F4 D0 BC
 38 FD 9D 4C 46 30 9A 26 18 81 D0 DF 32 FB 5F 1A
 19 B0 FA 30 5C D7 35 DE 78 30 F0 90 03 72 07 01
 CD 03 57 F9 E4 3B BF 55 38 6D 50 28 56 41 20 B0
 27 23 77 FD ED 2D BC 6F 49 81 90 BE F6 B4 82 3A
 F3 92 55 A6 DA 4E 60 9E E1 46 A1 41 2B FF 0E D3
 A1 06 DD A4 80 77 41 01 BA 36 FB 3D 44 86 30 4C
 62 D3 0B B8 AD C0 B8 9F 66 BF 2B 77 FA AF BB B9
 FD A0 6B 8B B1 5B 2D BD 70 5E 4B C3 B3 9F 56 A5
 42 DA 4D 88 0B 92 D4 5A 44 6C 7F 02 71 D0 83 A1
 3F 33 62 4B 07 AD F2 13 48 D4 33 90 8A 0F 5E 80
 D2 45 9B 21 7E 2B 3D 00 0E 1C 8E C0 39 13 35 8F
 0A 2F AE 06 8C E9 18 E3 9D 80 53 6B F9 43 C9 6F
 EF 44 3F AC C2 A7 40 B2 CD 5F BE F5 4D F0 51 E8
 05 A6 B5 81 BD C6 6D 51 ED C9 41 C4 B5 19 DA 86
 59 BA 09 65 4B 9D EA 8E 35 DE 1F A2 30 C6 E1 C0
 C7 82 B9 A4 32 15 5C DE 2C B5 9F 92 96 6A 63 3F
 B2 18 26 72 02 9D B0 96 FE E8 B0 2A DA 53 D6 D7
 5D D0 6C 9A 84 50 9B 85 BD 7F 57 CA E6 6B 37 A4
 62 4E 51 13 23 1F DD 2E 44 5D 4B A5 EE 03 B6 85
 BC 72 F0 1A BB 59 8D 9D 0E 63 1E C4 C0 5A 8B E0
 1E D9 82 D5 B5 57 F9 87 37 D9 37 C3 95 57 C8 83
 CE E5 36 6F D6 9D FF 12 05 93 74 44 16 FC 2C 6C
 02 6A CD C8 A4 3B 4D F8 29 22 49 21 D4 BE F2 64
 10 65 08 37 BF BA E7 36 FC 44 2C 97 17 CD 0B EE
 98 A6 A4 02 D3 24 90 37 4B 4F 67 0A 77 B2 4B 81
 D2 3F 9D 25 2F 03 99 9D E3 92 44 29 7C 2A B7 5C
 4E 60 87 6F CA 42 3A A2 97 C0 2A 5F 43 1E 12 50
 92 88 A4 48 9A 07 C8 D1 C2 B9 90 95 2A 70 12 90
 4C 3D 36 76 7A 79 B9 89 03 E7 AD 0A CD 79 BE E7
 93 45 CB B6 B0 EE A9 35 27 FB FF D7 12 FC A7 7F
 2E 3F 81 C0 06 EE 4F 3D A3 51 48 8A E1 14 83 FE
 E6 8F F1 68 76 9F 2F EB D8 70 61 0D 61 46 03 DC
 44 FF ED F2 DD 39 FE 51 1D 76 54 52 F3 76 A9 62
 43 F3 C8 E0 E5 5C F8 C6 1F 15 40 2F 14 BB 50 0A
 90 14 AB DC EA FE 9E E7 B4 FD 05 D4 3F F7 34 A1
 D6 91 9A 6E 2F 2C 23 3A 62 78 DF CF 85 22 9F 22
 4A 64 9D D9 1D 17 71 B8 B3 C6 86 36 A6 69 95 55
 2B 0E FB 93 3E 0C 30 09 74 82 F9 97 BB 37 C1 C8
 7C C2 2B FE 6A 4C 63 01 0A 6C 0A 2F 9A 47 71 77
 92 5B EB 99 3E A2 4C 48 2D B0 91 FC D5 A3 09 7A
 F6 60 F2 FF C7 3C A9 EC 6A 60 9D 83 2A 67 32 8F
 AC 35 19 3A 7B 70 46 C7 D4 7E 5D ED 9A EB A2 02
 20 83 8C D5 DF FC 3E 17 05 0F 17 87 78 EF C8 D9
 0E C9 64 89 47 C8 B9 19 23 D7 19 27 64 8B EA 49
 9A E1 6D 50 DE 6E E3 56 BE EA D4 A0 8A FA 96 86
 4B 68 E2 94 C9 36 38 9E 23 34 14 0F 5E 17 AE 09
 77 B1 00 17 78 A2 3C 88 F2 0F 64 2A CD 2D EF BE
 8A 57 D2 26 AA 64 E7 EB 25 E2 A4 B5 27 4F 73 6D
 4A E6 07 C9 9E 31 BA 2A 5B E0 78 E4 04 5B 32 3E
 C2 9B 13 A2 CD 16 0E 1F C4 96 7E 19 CA E0 D1 6A
 71 0F CB 7A 37 9C DE 32 0C 00 F1 D2 E7 17 B9 93
 2E E9 D7 41 2F 73 D1 23 28 C9 59 AC 83 A2 0E 1C
 CF 3D C5 17 B6 3B 06 E8 3E 2E 2A 8D 68 76 D1 D4
 53 C4 0F CA 8D 67 EE 30 B0 9C 99 7C 9D F8 7C 80
 6F 13 96 8D B9 15 81 2B 24 1E DD 94 22 3E 20 F0
 59 46 E9 F9 92 28 CB CC 2E E3 2E 12 54 E4 1C 5A
 B8 11 6E 2B 3C 77 1D 06 C5 5B D5 24 38 E1 75 6F
 03 F0 2B 5D A6 72 69 D6 B1 CA CF 00 30 2A 5C 02
 A7 87 23 A1 83 4C 08 BA E8 D7 91 40 5E 4F 54 BD
 28 53 B0 0A 6C EF 0D BD 31 75 CC 4A EE 5F D2 9B
 BC 90 14 82 10 33 13 C6 31 C5 5B E0 38 E8 B0 06
 E4 3B 31 C9 7F 43 91 35 5D 76 5B 04 50 08 39 63
 81 70 88 2F 82 4A 00 37 9B E5 B5 0B C8 FA DD 63
 53 00 C0 81 48 79 4E 96 8B A6 D6 E0 BD 33 2B E2
 8E 5C A2 BE 97 90 AF 95 BB 98 0F 4F 16 15 B4 6C
 0D BE 98 3B C4 88 30 A0 60 F5 C1 3D 5F 22 4E FE
 3D 64 C5 BC ED 0E E4 F0 F6 E7 B7 42 42 56 AF ED
 9E 58 18 86 24 26 10 7B 7E 16 30 0A CC A9 C6 41
 5C 6E 8B 26 73 B1 3C 65 FE D2 FF 0E CD 07 27 F4
 60 52 EE 7A 39 F4 3B E1 A1 51 04 F3 E5 81 FB 51
 96 AF 01 7F 8E AE 61 F5 28 05 06 8B 25 69 FB B5
 01 FE BA 6A F5 EF FB F7 4C E9 2B 31 63 90 09 54
 FB 5E 94 4D 15 41 5C AB 1B F8 D7 4D 28 89 DA EA
 74 91 19 F6 4A BC 17 01 52 3D 49 F3 7F 1D C7 EA
 58 3C A4 E0 23 B1 1F 76 B3 00 67 FF 09 A1 04 FA
 B4 02 41 0A DA 06 E1 37 64 DD D7 BA 8C D7 45 5A
 0B 80 30 96 AC 6C 38 F8 42 8B D5 74 A9 99 8E FB
 4F 73 CD 1B 9F B6 F8 0F 5C 94 AC 76 2F 7B F6 E6
 57 CB 42 F2 32 53 4E 8E A7 C8 F4 E8 D9 20 22 86
 1F B2 FA EB 2D B7 68 F1 52 23 A2 4E 13 7A F8 89
 3C 01 8A 2D 4D 81 B2 DE 08 77 9F 9A CE AC 22 80
 34 7D CF 00 CE D9 68 32 FA 32 F8 FC A2 7B DA C2
 63 45 2B E7 EC 07 E2 FA 9B B5 0E C7 63 D7 76 D5
 C1 BE 62 3F D6 E3 4A 5B 29 56 FD 46 3E E1 C4 9E
 81 B1 B1 93 0F 98 D8 E3 47 41 25 C9 39 7E F3 BE
 23 F3 12 B8 BA E8 D4 8A 42 C2 69 66 E2 BE AF CA
 E0 0E 5B A5 04 E0 0A 46 49 B4 AE 41 F4 7A 70 AC
 EF 73 4D 31 B4 8B A8 29 B5 B8 9A DF 5A B4 C8 54
 1C 21 66 51 E2 D2 13 53 6E 55 60 6C DC F2 1F B2
 0E C7 2A 30 3A 95 C3 DD 0B E2 CE F4 8D F8 87 85
 75 3E 86 C4 DB 0A A9 6D FA E7 9A 93 19 43 AF 09
 D1 60 EA CF 74 E7 39 8B 3D E5 EB D8 B4 90 A6 7B
 54 F0 6E 71 0B 29 EF 7F 49 22 8B D6 CA 99 00 F0
 00 1E A5 C8 ED FA BA 8E BD 31 27 A4 25 59 9B 93
 11 C1 C2 E5 C3 B5 E5 85 3C ED 05 24 F5 A2 69 A1
 67 F1 FA F5 1C EB 9D 2F AC A6 F6 94 00 7E 30 BD
 A3 B8 0D BE 78 FD 45 02 7D 4C 68 6F A2 13 B8 65
 94 47 A6 09 BB 0C 70 50 8E E3 77 C5 91 89 C5 4F
 8E FD 91 2A 46 DB 40 9F CE C6 8C 2F CD A8 A6 F0
 13 AD 2B 43 05 1B 95 92 AC C4 E1 06 7B F3 18 7B
 60 A4 A6 EB B5 07 32 4E 23 B6 7F 7A 36 30 C8 37
 B1 B4 16 47 26 F5 5A 7F BD 26 E0 4D 78 EB 8D 9B
 D8 FA E9 2A 73 64 B6 F8 E3 4A FF CD DD AC 70 30
 96 89 B8 3A 4B 5C F8 1A 74 02 E8 AB 04 A1 50 88
 DE F9 34 46 5F 4E B8 85 D8 5A 92 BB 99 2E 3B 11
 78 CF 5F D3 3F D9 BC 2E 33 81 36 A7 D3 BC 8A 4B
 66 72 DD E4 C5 95 21 41 22 88 39 26 3E 75 F4 D9
 63 F1 1A BD 7A A7 CF 68 99 2D 7E 8A DC CC 70 C6
 A3 B5 B5 1E AB 28 66 83 50 63 C5 70 A9 45 DE A7
 1C DB 1B 71 B4 2D 3F 25 F0 C3 BA 05 05 CE F9 03
 A5 CE A0 09 36 C8 F5 32 28 6B C4 91 76 C2 AC A8
 95 FF 77 BB E2 D2 91 43 FA 8A F3 82 53 13 C8 70
 26 EA FA D4 E8 BE 0A F4 FB B5 32 51 0E 71 05 76
 AA 10 50 D9 64 40 33 7F D8 CE 53 04 02 FC 2C 37
 59 FB 27 AD D8 64 ED 57 90 F9 9A BC 89 23 39 CF
 A3 34 18 6A 2E D7 DF 96 6D 59 8F 34 75 55 44 F3
 F0 E6 CF 6F 1A B9 80 94 ED 38 D7 DA C1 EE A7 DC
 A6 0B 56 ED 75 55 02 B8 76 9E 9E 41 3B 18 81 5E
 74 3F 33 D5 2A 53 C7 14 7F E6 57 6C D4 7A 66 99
 0D 1D 18 E9 7A B0 2F 16 C5 DF CB BC C7 69 61 60
 DC 4A D6 B6 E1 66 73 BD 4C D2 ED 2A 0C 56 10 E4
 5E A5 5A F8 90 A8 6A AD AF 1E CC 6B 85 4B 5B 33
 01 F7 99 8C D9 5B 96 6B 3E 37 7E 4F F3 1E A8 48
 1B 0E A0 1D 09 75 FA A7 7E B3 9E 7B 1C 33 D9 6D
 9E 97 A6 72 50 DF B9 37 64 9E 9F 24 C6 57 73 AB
 3E 88 14 D1 C3 6D C1 53 17 55 9F 5F D0 BC 08 DE
 1A 1D 9D 5F A1 58 C9 8A 1E 14 B4 D4 3D 6C 21 A4
 48 3D 9A E6 20 CD 77 4B F7 BD BA A5 3E 39 3C 77
 87 C6 AC 51 D8 A0 95 B3 46 14 DC 7D 7F 1A B5 93
 2D 6F CE C4 99 F0 C3 1C DA 9D 9A AF EE 0D B0 CC
 5B D9 65 7E F5 6C 19 67 27 77 23 17 DC 08 CB C6
 63 03 DE 96 50 43 71 AF 39 BE AD C5 E1 27 5F A4
 CA 65 E3 DA A6 E8 A5 63 A8 80 10 C8 30 C2 88 F8
 82 7B 27 17 A4 20 A9 38 E6 6B B3 C9 E7 A6 5B 90
 23 FA C7 CF B0 42 71 F3 73 E1 EE 43 28 DB AA 66
 EF 12 57 F8 D7 A8 8E E7 6B C8 6C D1 09 66 74 C8
 EC EA 17 06 50 6B 6D 37 2D 45 56 89 5A 35 63 63
 97 F1 D3 AC 3E AD 0E 19 39 E2 D4 EE 97 E4 9E DB
 A6 83 4B AB 99 26 38 FD 05 7A 78 08 DA 2D 9D 50
 AD BC 47 F2 F0 51 16 DE 82 E3 5A EE 45 77 84 AF
 74 CE 90 E6 E4 A9 08 AA 59 5F 2E 48 DF 2F FE 2F
 7F 3D 0C D6 5C 25 F0 17 22 E8 8D 9C 17 2C FB 42
 60 9B 68 BD F1 75 C7 43 FA 41 4C 0A 41 09 AF 16
 37 78 FA 72 84 97 5F 39 1A BE 42 BB B4 32 97 9D
 8D B3 84 98 CF 83 A6 B9 45 12 F9 84 11 66 4E 2A
 69 42 61 41 83 02 58 07 14 93 4F E0 96 BA C4 77
 B9 4B 6E 69 DC E1 97 CB 2B 95 41 51 F8 6A 60 AE
 AE 83 75 45 1B 6A 4F 87 C0 24 10 35 B4 8A E0 61
 D9 6D 32 6E C4 78 9E 55 4C BE 28 90 9D F7 85 4C
 6A 27 E0 49 4D FF AD 32 C7 49 42 9F 90 7C DD A4
 27 DD 44 F4 9C 1D 4C 9D BF C6 5A 54 D3 23 1C F0
 A8 EC CC 4A 63 88 03 15 94 B1 99 DF 61 5D CF 19
 D9 22 A4 9F 10 B9 A3 06 52 1D 71 1C 0B 74 F7 34
 C7 2C BA 74 36 08 63 54 DE 4B 28 C2 84 3B 5A CB
 9C 69 38 56 F8 E5 C9 1E 8E 3D 56 7D AF 31 D2 F2
 53 5A B3 C1 F8 04 E7 84 14 CC B8 87 5F 1B FE 38
 F8 BB EB 12 6A 8C 73 FD 68 E5 FD 10 5B 6E 7B 9F
 CD 43 80 79 0F 44 CF B0 B7 96 94 B1 BE 03 DD E4
 B5 E9 52 D4 0F 2E F8 EF 8D 57 F2 71 25 79 C8 6D
 18 31 B5 DF 6A 27 F3 5E 9C B0 E0 1C 7E 59 8C 8F
 D1 4F 37 E7 3D 7D 7C F6 82 FE A5 28 55 06 48 67
 2C 88 87 D1 1F 83 7E 49 72 B7 7F 3A 28 68 2C 01
 79 6E 0D 9D 95 41 C4 4C 81 F8 12 4D E2 A8 40 85
 75 AF 2E 97 36 02 42 E9 CB 75 CF DC 08 BB 81 0C
 B5 6B 52 FF 1D 38 5C B2 CC 89 C5 48 E5 CD 9F 5A
 A8 25 CC 4A BB 60 F3 BE D0 C3 94 30 5E 4B 2B B4
 1A A8 1C BD F3 28 A5 BA DB 3E 89 54 12 E8 97 0E
 7B F7 A1 FE B1 D0 3C BF 39 CA FB A8 F6 D9 D4 01
 B5 7E 48 E3 36 C3 7F 45 6F 0D 72 8F 6B D5 7B CD
 C5 FA 8C 7D E7 BF F9 C9 CA F7 D6 25 08 55 78 13
 2D 42 D2 E2 37 9E C4 7B 3D 3F 8A C1 36 B0 4A 7D
 4A 07 E4 69 B7 C3 E7 21 1F 73 F0 35 ED 08 49 50
 17 8B DD 13 79 6B 16 D3 30 9A C7 E5 AA 70 9F 37
 2B 56 F8 93 AC D5 E9 73 77 2D B9 49 EC AB D3 4A
 A0 F8 D0 F0 58 78 B7 1B 7F CE 3E 70 BE 2C F9 96
 83 94 41 4D 48 CF ED AF AC 32 FA B5 70 6B 06 3E
 08 31 6D C8 F3 BD 8C EF 78 90 0E 74 88 7B D6 3B
 01 F9 E9 A4 D9 75 D4 1D 75 84 FD B4 F5 26 5C 35
 4E 6A 46 6B 0B BA F6 A0 B7 20 63 90 9B 72 DC E6
 DC 48 C7 6D A8 90 93 AF 9C 6C 78 CE 1B 53 BA 2E
 90 61 25 58 77 51 33 64 FA D7 BB 9B F2 CF 58 6B
 63 C0 97 AB 65 E9 19 D5 E0 6B 69 50 88 98 1B 79
 2E 0B EF 2E 26 0B F1 A8 93 02 8F 31 2C 2C 7B 8B
 48 6E AE 69 0E F8 97 68 03 72 0A 1F 80 0D FC 80
 0E A7 C7 01 6F E5 53 C4 9C 95 56 51 2D ED 91 BE
 95 57 5A 55 2E 67 6A 1A 10 49 A9 0C 46 B9 36 BB
 1C 2D D9 FE E3 6C 52 AB C4 38 EF 53 C7 1E 8E 30
 21 8F 0F 2D 96 A9 F3 F3 CA D0 CD 15 D1 F4 FC FE
 23 6F 7D 3D 5B 4D 87 0A 2A 95 99 29 8D 9D FB 04
 EB 3A 1C 4D 3E DA 9C B3 A1 7F C5 BC B3 CE 0D E8
 5C C3 8C D1 4D BF AC 5E 4D 4C 4C 70 5D 27 59 5C
 DF 44 55 4B 61 2B 0D 5E F0 17 0C E0 E3 2F 67 B9
 DC A8 E8 DD 68 2D 44 86 C3 CC 5B AC 7D 42 26 FA
 B1 61 BE 87 8E 36 63 0D BE 19 0C D5 A1 50 FB 86
 F3 99 21 AB 5C 4D 32 7F 6C BD 00 08 7C 28 25 86
 CA 68 50 FF 9E 42 88 D7 14 AB F3 FD E3 65 DD 21
 65 C2 FA B7 4F 34 D0 98 61 95 32 3D F8 B7 EE 6F
 2E CF 49 5D D5 53 23 E5 AE 24 7C DB D2 38 01 DA
 40 91 4F 34 B7 40 EA 55 2A 39 85 38 25 EC A8 96
 16 B7 D8 79 3C 5A F0 6A 91 FE 67 92 28 DC FB 30
 E5 15 1A 1F 83 1F AE C4 72 E3 81 57 27 06 DC 16
 84 95 67 02 28 89 FE B0 6F 4A 74 2B A7 2F 83 68
 E4 9B ED 69 EA FD D5 18 77 4B 40 2E 56 76 9D 73
 A0 A5 83 B9 FF 56 03 F7 A6 A2 D3 94 3E 1E F6 B6
 1C 63 2F 59 E8 89 1D EA 82 AE 1E AC EC 38 F9 71
 BD 5C A1 1E BC 04 4F F7 48 66 43 42 07 A4 3B 66
 B4 A1 00 F7 AF 95 EB 59 F6 3D 3B 15 72 D4 33 8C
 0C A0 67 17 DF AE 2C D0 20 A7 70 CA 2E BE D0 28
 6F 7E 72 27 82 C7 3D 0C B6 2E 45 EF 79 F5 CB C7
 25 0D F5 28 4A E5 E0 7E 32 43 E5 59 56 DF 58 CB
 9A E8 50 6C 57 1F 57 B6 14 91 BF BA 22 F6 F3 51
 DF 08 28 9D C6 90 E8 3D 22 E9 3A A4 2A 0D 72 9A
 E3 57 D5 5C 0A 15 48 C6 89 0A 74 6E DC 33 86 B7
 B3 E2 BC A2 44 7F CA D0 7B 70 C2 CC 6F F6 A9 1D
 C9 42 A7 37 10 B3 C7 CC 07 D7 BA BF EF 7B 04 68
 02 07 2D 71 65 48 41 0E 3F 4C C7 7B 2D 29 BA 80
 6B D7 63 2C 46 C8 D5 10 30 1C 73 B5 8B 63 0D EF
 21 8B 3E 0A 8A 92 D2 55 FC F3 18 55 FD D0 65 3E
 D9 61 86 43 B5 44 7A 8F EC CB B7 46 FC C1 4C 9B
 8C 6D 95 36 CE 90 EC CD F2 DB 81 7D 6A EC 4B 8C
 E9 C7 AB 10 64 A8 50 07 73 A4 3C 56 18 75 B8 4A
 D2 F2 A1 04 59 7B E4 22 67 F1 61 A4 23 94 E9 3C
 8C 44 0B AC 61 10 D4 A5 86 90 0F B6 85 43 60 D7
 2F 26 E0 40 F6 CC 56 5E 77 D5 24 B4 FC 55 E6 5C
 31 C8 D4 A9 2F 5C 86 B0 B3 8E A1 22 A9 04 52 66
 1B B3 90 84 72 7C E3 62 4F AC F5 79 D3 D8 2D 88
 8C CF F6 00 22 22 48 1C 95 E6 91 07 51 EC 90 C0
 13 90 6E B7 5B A3 28 64 C7 9E CD AC 33 AD 7A EA
 EB 86 D9 97 A3 46 C5 B2 13 53 DA 29 FE D0 BD D5
 A5 7E BF FA F1 EC 61 2E 9D 56 79 27 86 03 19 17
 AB EC F2 AB 84 77 1E 1C D9 6D ED 08 1B 68 51 18
 A5 D4 BF 64 B6 E8 DC 8E 51 74 85 AC A6 F0 CA 5A
 DB 22 06 8A A9 6A 26 9D F0 5B 4A 2C E7 D9 74 7E
 66 4D 67 40 AB 17 E2 3E 0F 82 53 CC 52 60 94 F8
 94 F5 2A BC 54 4A 65 17 7D A2 75 09 D5 F9 AA D7
 AC 2F 89 6B 43 9A 52 40 D4 48 1A 73 C5 18 81 92
 95 C4 57 BE 2F 92 96 CA 52 D6 AA 2A BD E5 6E DC
 62 20 C8 7F A2 7F FC 77 63 13 9A 30 EE CA 90 72
 1A C9 9C 97 E0 F7 25 7A AA 4A BA 91 9B 8D AD A3
 C5 A0 49 06 6E 08 7D AB B6 E6 42 EC 5F 5D 68 17
 73 78 50 D1 25 5B DE D2 68 A7 18 10 25 C3 C9 E3
 92 1C D8 8A A1 C6 3C 88 41 EB BF 9A 77 D0 17 1E
 44 A7 A8 54 01 1E FA 8F B9 87 BD 61 88 73 EA 6E
 32 8C 25 59 02 1E 6C B4 6C 01 EC 4E EB D9 10 83
 05 47 AC CB 35 0C 6A 4C 87 8D 9E E8 63 BC C2 16
 0D F4 67 B5 CE 6C 81 7E DF 66 EC 83 36 B2 40 12
 30 A3 E4 9F 4E F4 AC 74 9E 36 52 22 41 E2 14 0C
 99 D6 27 A0 44 F0 05 A4 9A 2E FD 35 9D 21 9B 02
 BD 38 71 DF 00 3B 59 35 08 B5 E9 C0 F1 44 EA DE
 1F 2D B2 2C D9 A4 64 6B 48 C8 E5 07 92 7F ED 61
 9F 00 3C A8 2A F6 06 35 6D 5C AB 4F BA 3C 0D CC
 EB 01 BB 22 A2 45 EC 8A 5D 6D FC 1B 2C 1B 7D A2
 59 E5 CA 94 AB 77 4B F6 1C 18 62 ED 45 C6 27 85
 3C 9E 19 22 CD 79 A4 AD E4 D9 28 CD 0A FC B8 71
 E5 99 D6 F3 4F F3 44 01 59 91 83 F5 D0 5C E2 8C
 A2 FF FF 23 84 03 5D E1 38 58 2A 8E CD E5 5B 13
 DC 4E DC D2 98 65 B0 F4 DF 2D AD 55 9D D8 EA C7
 FA E4 D5 DA 24 EE 2A A8 7C F9 26 9E 7B 10 03 8D
 A1 3D 8E 7B 96 FA 77 CF 45 A5 D5 CB FE AA C7 6B
 1E 6A 84 DD D1 22 CB 1C 49 C7 47 B0 F1 D6 BC DB
 45 0C 61 AE DC 8E 37 4D 71 8A 1A 48 30 56 B4 FF
 E0 68 3C 72 45 34 A4 67 06 ED 90 B0 BF 3E F4 3A
 52 76 D8 02 5E D0 33 E7 17 BD 1B 5F 54 19 87 FC
 AB 4C EC AB 91 0C CC C1 28 F1 76 59 9D F2 9D F6
 32 BD 77 43 CA 0B 7D 50 2C 7C 6B 1D 5A C6 DB 07
 F0 87 EC 0C C8 DC DE 6D B5 A5 CB B2 A6 2C D4 89
 09 1D 16 C8 82 DB 31 50 FC 6F E0 77 B0 82 63 A9
 CF 05 7C 9A B5 23 C7 E6 45 F1 E4 FC 1E 18 1F A1
 DE 35 C1 CE B0 28 E8 68 ED 93 94 FF 35 B1 01 8B
 A9 CD AC E0 19 3B 5B 6F 33 2F 14 F9 46 2E DA 50
 C6 90 22 62 9D C2 B7 1F 7E DD 99 70 D3 0E 88 E7
 65 C3 99 55 5A DD 38 D8 AF C9 3F 22 DE FB C2 CA
 8D B2 50 7E D0 A6 57 2D 86 2D 0D D7 E6 5B B0 52
 F7 42 F1 91 FA 83 36 E5 0B D8 D7 66 C2 73 43 69
 16 D6 48 43 E5 91 94 02 99 A0 31 88 F0 26 8F 55
 CF FE 37 56 DB 8E EA 73 B2 88 C3 2F 5B 47 7E 7C
 9A 4B 05 90 D8 EF 75 29 FA DE 26 CA A7 BD A1 49
 FE 98 2D 70 83 70 EB BB A8 A7 6F 65 0F 98 EC 53
 72 D1 3B EF 29 AD D4 E6 86 5F 02 64 0B 3D CC E7
 7A 0C DF 1E CC E5 C6 08 A2 72 5D 6B D6 C4 71 20
 1C 4B CB 89 28 14 BC A9 43 29 E3 AA E2 60 8E AE
 A7 F0 1C 87 65 CB 32 1D D4 DC 4D D4 3D D5 B5 40
 15 D6 92 16 A6 39 3E 98 8C 2D 83 B2 2B 1B BC E2
 F3 59 2D F3 17 0A 0A DA 4D 9B BE D8 59 76 B9 06
 99 FF 4E BB 20 66 85 5A 42 5F 3D 6D 3C 24 39 18
 73 EE 02 02 4B 81 B2 67 E4 2B D9 00 95 0E 9F 9D
 E9 E4 C6 93 3C E1 5F 73 20 14 0C 83 40 F9 19 E3
 FF AB 33 77 32 9A AB 59 25 53 61 47 58 5A FC AA
 E4 39 17 12 EF 15 45 02 11 FA 31 2B A0 B2 F7 C8
 43 CD 7B 9E FA FD 05 99 7C 90 7E 9F BE 7A 69 B9
 5F 7E F7 C1 DC 66 49 96 AD ED C2 DF 63 63 71 30
 4B 4A F0 A6 6C 3D 6B C8 56 F8 65 31 DD BA 29 DB
 31 2A F5 A5 DF C6 1B 7D 18 6E FD AF 0C 89 5E 75
 42 34 62 AA F6 6C 54 60 5B E4 58 5B B1 2F F7 E6
 2D 52 D0 A9 50 F2 D3 96 44 AB 3B 58 50 92 73 5D
 28 3F FD E4 F8 CB FC 57 44 BB 3E DE 7B 0E AD 21
 7C 87 A0 31 A9 DB AA 38 FF 74 D7 7E 2E A2 FE 96
 D1 4E 82 88 72 9F B1 29 5B 25 20 D3 F5 CE F9 0B
 AD 95 36 F1 BB B1 50 7C 17 49 24 FF 39 1D F0 D1
 5D BC 1A 70 08 FB 84 F0 1D 1F F4 D9 9A D0 CE 97
 10 E0 AC B2 CF D9 63 63 AF 31 43 52 8B AD 86 7A
 9B C9 9F A9 43 86 D5 CB F1 DB A0 8A 1E D1 49 00
 A9 51 84 81 31 24 DB 1E 6D 4E CB 58 0F 98 D0 21
 0D 50 0E 69 1B 45 0F 87 E0 B0 01 7B C4 44 F2 D1
 D2 18 76 FB B3 E1 E3 18 C3 94 04 C5 F9 77 F0 36
 EB 45 92 EC 6D 9B 8E 11 DF 2B 66 0B 8F BC 77 CD
 81 30 79 6E 90 94 6C 8C C5 CA CB 34 28 51 7D 5E
 76 B2 82 0B BD 82 C1 90 58 5B C3 BD B3 8B 21 CF
 1D C8 EB 8C AC FE 63 6B 72 41 03 19 E2 CD E9 3F
 00 CD 24 E2 C2 90 F7 5A 56 6B 10 96 1A B6 BD CF
 7D A5 40 9A EC ED 87 6C 6F AE 9F E6 03 32 42 48
 97 52 F2 5F 58 A0 9F 41 75 35 48 22 36 B3 62 5B
 6C C8 4B FF F8 85 F8 12 83 ED A5 9D 51 C5 26 1F
 FB D6 C9 5C 81 40 20 52 B2 3C 4B F0 84 87 E8 25
 85 60 33 72 F3 B4 A2 95 6C 5B 72 17 A7 73 87 2E
 B1 11 A3 BF 5F C0 46 84 7A 04 F9 B6 3B 86 93 AC
 8C FA A3 A5 CD 30 78 52 39 20 F1 C2 D4 05 9F 72
 80 F4 44 6C 1C E3 9C D1 9F 7A 19 4E BE A3 34 89
 D3 78 C4 5C 93 F7 D4 8C DD EF 6D 9C A7 36 EE 64
 C7 B8 80 45 56 CC 3D F8 04 16 F9 4C 11 BC 48 7E
 9D BF 71 5A A4 C8 D0 1B FF 49 1E 5A BB 6A F0 5C
 70 7C E5 34 6F 9A F0 6B 81 43 E9 01 D1 1B 70 0D
 5F 95 D5 A5 07 2A 51 9F D5 0D 79 00 22 9B CF A3
 F1 0E 09 C8 B7 10 29 E2 C9 D0 2B 2A 7A 12 61 2C
 EB 20 D8 3A E4 38 56 22 98 99 72 52 BB C7 AC CE
 8F 72 C8 FE 5F 94 1F 84 8F 09 A2 47 4B C2 73 81
 71 3C 92 0C 0C A9 C0 B8 77 70 90 B6 41 55 3B 66
 2F 5B BE E5 21 EA 79 54 D6 F9 19 8F DB EE 77 05
 CE 1E D1 51 CE 87 93 D9 34 C3 A3 4B 1C F8 B9 75
 DB 8F 66 D7 5C D8 8E F9 EF AC D0 29 DE B0 10 8B
 1D B0 6F C1 15 F6 58 28 BF 07 37 8D FE 2A 10 FE
 41 29 DE E2 3D 94 EC 8B 39 44 31 00 51 F2 3A E1
 7B D2 90 21 5B AA 90 51 4B 83 F7 7E 25 F1 FF 11
 2C F6 62 FB FD 5C 55 F9 5A 8B 27 3D E8 A2 7A A5
 88 D0 A3 F9 6E E1 AD A2 31 A7 0C 19 87 34 12 10
 56 F0 43 6A DF 4D A6 6C 7F 5C 86 D4 06 B4 A1 04
 1F C3 27 79 B6 ED B5 A2 38 22 64 B9 62 F0 A4 19
 A9 3D 45 42 23 81 25 4C 84 9F 40 2A EF EF C9 D9
 A1 C2 09 69 A3 26 C7 8A 0A 55 39 61 88 91 FD 94
 CE FA 32 F4 3C 00 F5 89 02 B6 D0 70 46 1E 69 6B
 01 91 C6 A0 EC 99 73 3C 14 22 E4 88 49 77 C5 71
 8D 69 81 2D 9F DC EB 0B B8 72 04 88 C4 2B 46 D2
 8C 5D 02 7A 51 2A 4B EC 19 3D 35 B6 E8 CC 62 B9
 6D 7D 3A 50 18 65 59 F1 C6 64 5B 12 F7 D4 30 D2
 0C 93 73 31 02 AA 75 C0 96 0A 0F 9D 2C 27 6B 73
 27 E1 55 74 D8 6F 70 45 77 47 B2 A5 D9 9F FE B5
 43 51 BB 07 C1 FC F6 75 94 4D BB D0 71 BD 1B E1
 1F 4E 7C CC 12 67 57 4A 6B E1 A7 01 A3 1D 31 AF
 93 9C DE 56 FA 05 0D 43 E6 15 81 5D 65 CF 28 07
 EC 15 E0 59 8B 12 17 28 3D B9 58 5E 51 06 16 0D
 E9 57 02 B4 F6 B2 B3 BE 39 8C 52 90 57 2B FE 13
 DD E9 6F 2D 86 81 3A 3F 3B 5C A6 75 42 78 8F 4C
 4C 57 1F 97 73 28 9B 3E 7C 0E AF FC 8F 92 E5 0B
 A4 C2 70 04 AE B8 57 EE 04 1F A8 4F FA 42 61 69
 00 3D FD 38 6C AA 31 E0 2F 7C 9F 5D 51 DB CE 70
 36 E7 AA 99 07 58 BA 54 66 D1 08 51 57 30 26 47
 3B 96 DB BE 84 90 6C 67 B0 BA F3 E4 33 62 9D 48
 25 1B FB 10 0B 64 DB CF 9A 54 62 8E E1 F2 B2 B0
 17 CC D0 03 6F B2 31 E6 9C 26 A3 C3 69 0A 36 60
 BB 82 54 81 7A 06 57 80 20 D4 B8 4B 95 FD B6 B4
 12 F2 C3 0A AB 6E F7 3C 6A AC E5 B9 D1 74 7A 58
 4F 04 02 B9 61 95 46 8F 7C 5D 30 14 4E 16 CF A7
 00 CC A2 82 E1 D7 40 8D 1C 9C FC EF 72 08 8F 99
 77 A8 86 D2 0A 79 70 A1 42 44 8D C8 0E 6F B5 84
 AD 02 BB 53 93 1C 97 BB 83 38 74 65 87 37 F7 F1
 39 FE DD 70 0B AE D4 93 78 17 7E 06 17 C1 8C 29
 0A F6 45 BA B2 69 29 8A C0 13 4E 83 03 B7 E0 6A
 CA 41 F3 0F D3 0E BC B6 00 65 78 2B EB 07 C5 2D
 26 95 BB 9B BC 04 36 28 84 50 D7 04 89 CB A8 5B
 FF 09 18 E5 28 75 57 9C F9 C5 DB 1C E3 70 2C 0F
 47 4F A2 B9 C3 08 F5 33 A7 19 F8 BF A0 2A 64 1A
 E1 60 A2 E4 6B 8D 69 D0 6E BC 44 54 E5 D9 6B 79
 6D 77 07 CC 6F 13 7E 79 7E FF 03 A3 F3 56 2E 90
 53 79 EC EA EA AB F4 22 20 D3 9B D3 6F 19 04 55
 AF 5E 07 7C 67 5E F4 1E 31 63 0C D3 5D D0 E7 BC
 94 8A 71 5E 6B 99 17 A8 FF 38 B5 76 2D 04 CC C1
 57 92 C4 F4 FB E6 49 84 CD 18 D8 7D F8 81 6E 47
 61 22 26 F4 8A F5 AE E7 99 DA F9 3B 4E 54 D1 EE
 2E BD C5 10 52 4D 17 08 65 3D F7 D3 8B C5 62 56
 E2 CE 31 60 8B 2F AA A1 22 5F D0 9A DF A4 06 64
 AB 1B 61 70 30 81 44 84 7F 5A 26 1F 41 52 D9 51
 69 15 1D 17 2F 65 61 2F A4 97 7F 02 83 6F E5 73
 1A 8C AF E6 27 03 11 F8 2F 68 FD C3 91 F9 AC 89
 79 AD 9B B3 D4 25 39 8D EA 81 BD B7 B4 A3 71 FC
 92 03 DD 14 54 DC 4F CA C6 C3 FB 98 9F 46 4A EB
 74 9E F1 5F 19 02 45 E5 D8 CC DC 7A 83 E9 11 33
 3F 39 83 14 33 9C 41 95 F0 96 3F 66 D7 D4 4F BB
 75 20 46 18 1A 2D 84 5B 76 10 7D A5 25 6A 1C 21
 12 50 01 AE D2 66 3E DF 2D C7 03 EA 1C B3 8E FF
 D3 A3 58 59 55 A1 D5 1F 62 D6 2D DD F2 8D 6B 5B
 66 9D 4A 33 43 6C 53 AD 31 FC A6 71 2F 76 10 3A
 EE 76 3D EB 6A 9C C0 58 E0 4B 56 CC 0B 50 A6 B3
 09 18 2F 3E C8 B4 7A 6A B0 54 92 39 19 9E 1A DE
 00 EF CF C7 1A A5 7C 34 19 B7 20 B1 7C 62 7B 5B
 69 77 FC 73 94 A3 9B 23 43 2A A1 50 35 2F B0 B7
 4B CE F5 3A 7C 50 74 81 5C 0F AF 4F C7 91 71 10
 DD E3 B1 E7 67 0C 5C 55 94 DA CA 45 9B 84 D8 EE
 2C 9C 50 54 F3 D1 43 C9 FF B5 D4 0C ED 5E 98 B0
 B1 29 4A 19 64 0A 4E C6 C8 AB EA B8 C6 C8 51 2F
 76 92 AC B8 B7 A1 29 F5 2C 1C BB 16 75 0E E8 52
 DE 66 82 96 DD 34 BD 9B 78 9E 3E DF BB 8B B4 68
 11 21 41 DA 7F C0 BC 51 AF 91 AF DA 5A 2E B9 BF
 75 1F 35 33 F1 7D B9 78 D2 46 78 2D 8E 89 3E 76
 62 D6 87 95 89 2E 13 40 29 A7 45 32 BF 53 EE D7
 B6 65 AA 23 04 67 67 5A 76 D5 62 63 0B 47 CF 4D
 C1 EA 83 3C B3 1D 15 90 C2 33 81 FA 0D A5 08 46
 A1 C4 06 16 34 73 02 FF A0 85 7E DD 93 81 7B DF
 6A B6 1B 93 74 39 03 31 BE FB 3E F9 AC 28 0E 7F
 53 A7 62 A2 D0 05 9A FD 5F 38 53 79 C5 0D 32 E0
 5F CE 43 30 80 17 6E D9 6E 50 0D E7 89 7C 34 65
 F2 A2 59 75 86 F9 8F 8D 2E D8 7C D6 00 02 A6 AA
 EC 39 AC EF 93 E1 FA 58 E1 CA 24 1C F8 55 60 31
 E2 C3 FE AE 17 67 B3 9B 7E D2 9B 4A 9F B1 B8 45
 36 FD 36 1B 0C 0D 39 5E 9E 9B F0 84 B4 52 8B D1
 BE 05 9E 73 0D 86 68 23 05 78 8C 0B 64 7D 9B 49
 E9 AE CC 0C 8D D5 0E B9 DF AF FF 60 23 C3 7B 2F
 52 F9 66 9D 6A 81 5F 39 4F AD B4 18 E8 DD EE DD
 D3 DE A7 67 36 20 A2 A4 8F 59 85 6F 13 A8 C1 65
 D8 17 5C 66 6C 1F FB A3 C8 7B 28 1C E9 26 56 DC
 17 85 AF F8 E6 8E BE 65 AE 17 56 72 96 6C 06 EE
 A7 10 43 CD 6A 8D 74 71 06 1C 73 04 7A 3C 11 43
 96 F4 FA 14 5A 94 B5 88 54 98 00 3A EE 01 47 08
 37 BA 32 0A 70 79 32 53 C4 E3 C3 09 40 98 DD 64
 C8 EB F4 E8 FE 11 39 6C 69 2D D4 02 01 EF 34 5C
 9C 95 0F C3 BD 80 DE 9F 4B 49 36 78 1C 9C BC 22
 BA 19 83 D2 B6 4F A3 2E 26 0D AC 62 46 F9 BC 94
 F5 98 76 9F 3F 57 08 F5 85 4D 9D 2E 52 FC 2D F1
 AC CE 56 9C F8 CD F0 00 F8 7B 60 AF C1 7E 63 16
 80 4A D7 6F D0 69 DF A9 56 88 4D A1 65 1A 57 87
 12 6A 37 A1 6F 20 C8 8D DB E7 AB 65 6D 39 F0 9D
 D9 38 C0 1E C5 89 E4 B5 B3 D8 26 97 D9 36 9A B6
 FE D3 B4 AE EE 88 4A 08 90 5B A9 34 9A EC 91 8D
 B5 59 59 26 67 88 5D 45 C2 51 A6 F7 D9 EC 3E F3
 EB ED 0D CD CF F3 FC CB BA EB B5 EC D0 BB 49 49
 82 A8 E9 81 ED DD 99 7F A2 87 FD 04 5F 32 A0 D8
 20 7A 2F 8B 38 2F 9C 43 C4 0F C9 0D B8 73 F7 75
 1B A8 D6 2A 78 FE 6E 4B DD 29 5E 62 D4 A5 51 BD
 03 1F 94 95 46 6E 43 80 B7 09 D5 AB 12 B7 B2 BB
 E8 12 0C 3D DC 61 71 2B 67 58 53 D3 CC 65 5C 5D
 72 B4 56 93 D8 75 9E 50 E4 65 AB AC 41 B3 FC C4
 70 8C 78 C7 72 0D 7A 2A 03 E3 78 B4 C8 51 F7 32
 42 79 E2 26 38 9D 98 C6 93 BF 95 2A 8B 45 25 50
 99 69 0A 51 7E 28 1B B4 37 6B 2B C3 5C 72 C2 35
 45 A4 85 A8 5A 78 DC 4F A7 3F D7 44 C9 4C 2E 25
 C0 1F 33 5B F5 18 1E E9 1B 65 81 08 F7 E6 91 2E
 D6 52 C4 E7 E6 C2 95 2B A7 90 FD 3E 63 EE 25 A3
 4F AE 83 53 C2 C2 B9 9A 30 F3 44 CC 93 0A C6 6C
 92 23 DE 37 38 21 9B 35 53 15 6E E5 99 39 61 FE
 E8 C2 9F BC C2 D5 B3 0C 68 36 46 CF 49 6C EB E1
 CC D1 F6 5C D0 EF C2 37 50 E6 13 BC 21 F0 5C 61
 CA A5 C3 6D 1D FF 85 C5 54 F4 02 2A 64 87 7D 6C
 19 C8 21 44 7B 2F 34 DE D4 4C 27 EC B4 25 E6 56
 95 4D 0B 77 5D 29 55 2F 99 D8 9F 51 88 0C 16 85
 4D 96 A0 F4 61 DB D9 5C DE 04 D8 36 10 79 E3 CC
 02 3B 17 3F 7B 7B 65 AB CE 25 F6 A5 ED 06 4D D2
 B4 C1 49 41 6B 39 A1 36 21 63 03 27 B8 CB C8 D8
 FF 3C 36 32 59 33 94 10 15 24 87 01 33 2E DA 83
 1C E5 39 F3 44 36 ED 4A 10 A3 E8 D1 DD 22 4A C8
 0A 29 A6 E3 94 54 E6 95 59 B2 7E 4E 5E 4B 3D BB
 91 16 FB 66 F3 47 AC 02 5A B8 0D 2E 62 D7 EF 8B
 16 8E 92 3F A7 11 E8 09 C5 21 F9 5B 4A 1B 3D 88
 68 1F A9 BE 95 4A 50 D1 83 2E 25 A0 DF 54 AB 2D
 0C 84 54 CD 97 6A B9 B5 C5 F6 3F 9F 24 3C 29 F1
 76 9C 34 AC B4 AD 7E AD C6 CA AF 77 1E 88 09 33
 F1 18 83 57 0F 97 02 C5 0B AF 37 60 18 46 28 80
 2E 3F 69 92 C6 F4 78 86 57 C4 C3 30 C0 61 60 69
 37 1A AC 39 88 58 75 99 BE 60 76 D0 0B 2A ED 7E
 03 11 39 AB 78 A9 F4 F5 46 79 23 55 F7 7C 07 A7
 10 1F C1 8F E1 A1 42 2B 17 44 CB 2C 88 4B F8 C5
 D1 5F AE E7 65 8A A0 88 75 94 01 00 F4 AF 7B 6E
 42 7A 7C 1A A6 51 B9 C8 93 1D 2F 6D 5C BB BD 3C
 D0 8B 92 80 53 EB 8E 49 CD 89 24 49 86 79 47 91
 84 E7 3B C0 61 21 0F 82 8D 28 D8 B5 B3 87 2C C2
 02 4F B7 62 80 A7 7F 3B 1B EE 29 ED 3A 9A 95 C9
 25 76 C5 69 FD BF 78 62 EF E3 5B CD 2B C6 1D B8
 F4 F8 D9 D5 AB D3 5B 26 A7 06 75 56 A5 CD 91 3F
 85 2C DB 6B FF 81 11 AB 37 18 12 6B 41 7A C5 B6
 47 28 A1 38 7B 42 79 E1 9E 79 A4 18 1A 18 EA 2D
 7D 43 30 68 E7 B6 69 49 21 66 10 6F BF 52 D4 4D
 76 D2 D9 3D AE 29 7A 47 79 97 75 2A E7 23 A0 87
 1A 41 4F 74 1A D5 74 2C 7F 8C BA 2C 2D DC FF EA
 F6 B9 AB 06 D7 EB 4B 1F 91 A0 36 E3 AE AE 1A E0
 A9 99 AB A3 CC 93 25 BF A8 81 26 DA 46 F5 EA A9
 A4 CA 79 0B D1 8F 9C EF 0E A1 10 54 01 E8 2E 16
 61 A2 C6 26 E0 F5 1F 21 69 47 D3 43 E4 F4 59 FB
 F9 F4 53 EF E5 97 1F E9 8A 0A D2 DF 47 CC 64 81
 B9 89 4A B5 B4 90 B7 60 40 0F 32 1A 77 4F BB 93
 9A 07 81 73 BE EF 3C 3A 70 7C BD B1 03 BC BC 5A
 5A 05 0F 8B 7B C5 99 27 63 BE 09 0A 53 B5 3C AC
 74 C1 46 C5 A4 81 FB 6A 23 5E 7A 90 73 12 D3 1E
 36 11 13 15 AF 5A BD 2B 63 D9 3E BA 65 34 A9 B1
 20 07 EF DC 9F 0C 44 52 E2 E5 AA D4 E4 94 4E 12
 4F 90 8E 49 9C 43 07 3E 93 FE 7E B4 02 F9 0F 52
 E9 B2 E3 03 B8 DC B9 6C 53 D5 37 96 82 A8 DA AD
 8B E3 3B 73 D3 C5 C5 48 DB 66 80 61 8A D0 64 89
 25 3E D8 05 DB CB 25 B1 3A 28 0C 1E A4 CD F0 1E
 AD 02 BC 52 7B 05 50 C4 4F C4 00 38 DF 28 16 D1
 A2 FF E1 65 D2 75 5F AA 2E AD 33 B1 60 2B 3A D7
 A9 A6 1D 5D 64 88 3E D5 15 3B 81 A7 9A 06 B0 22
 02 27 E6 C5 CE 81 6E 29 33 66 15 EA 81 EE C9 4C
 17 1E C2 5B A7 97 24 E6 1E 5C 19 60 84 A8 21 0F
 1A 17 7D 78 97 36 B5 E2 69 58 89 00 BB 7D 0A 35
 87 C3 0E 80 5D 99 31 72 54 A6 E7 44 78 B8 DA 00
 31 99 F0 12 20 CE 61 CC 07 3E 7F 3A 2D 8C 76 A6
 AD DA AC 34 4B 38 21 5A 16 46 E3 07 9B FD 8B AD
 84 45 3D AB 30 6B 45 DF 89 63 20 35 C1 8F D9 B5
 9A 7A BF 40 DA 8D 62 E4 5F 2D DE A6 56 49 8D 2E
 FE D1 59 CF 0F 54 D8 42 A9 EB B9 B6 9E CA A3 6A
 41 EE E1 D4 E3 57 C7 14 50 65 F9 9D A3 8E 91 B4
 AE F6 1F F5 4B FA 33 21 77 4F 8A DD B3 91 13 2D
 B5 52 44 AC 4E 72 E1 47 C2 2A 2A 97 8E B9 07 31
 E9 40 CF 75 7A 11 E0 9D 60 D6 3B 07 2E 33 AC 2A
 5A 28 D2 DE C0 CB 44 92 B5 36 2B EC 03 F3 08 C7
 9D 5F 4D 79 44 3D 98 3B 63 6D 09 CA 1E B1 35 49
 31 72 7C AF 4C F8 BC 1C 93 A4 13 45 D1 F5 21 07
 F3 D4 8A 2E C4 DC B0 37 33 BF A1 BA 95 83 A9 B5
 6D B0 15 55 FA 91 A7 87 9B A2 55 23 96 27 48 00
 C1 00 BB 38 6B 90 4E 7C 81 F8 F5 CB 79 C3 12 89
 F9 D6 22 03 E5 4D BE A6 52 02 CE C3 EE 65 E0 84
 D6 E7 C9 20 EC FC 1E C5 3E A2 D8 52 3C ED C6 8E
 EC 10 5F B2 46 00 AA F5 76 AA 64 82 72 A3 BA 4B
 DD 38 F2 6B 3A 35 24 66 21 1C 3E DD 50 FB F6 7A
 29 29 22 81 1A 74 6D E5 F7 A0 DD 5E 49 B1 63 CF
 55 21 CD 9D EA 30 A0 31 78 0E B6 91 C2 A9 C2 66
 1F A2 7D 00 38 07 86 41 1E AD F9 BE 74 BA D6 BD
 2E 40 58 CD 47 13 ED E6 DA 10 87 1C 29 AA A7 46
 92 64 3A 83 AF 3C F1 D3 3D 01 B4 F3 C9 D3 F6 BC
 DD C7 69 E9 73 3E 81 E6 1A 90 25 6C 0D 27 85 26
 5A 01 14 2D 5F 8F 07 4E 62 0C AB 1B EF B7 27 0E
 8E 5E 5B 98 E4 0C EC 78 FF 01 49 E9 33 46 A3 AC
 F5 1F 3D F9 79 F6 E2 C9 E6 B7 7A 6F 87 0B E9 C9
 32 FA 57 01 96 E8 4B D7 44 13 57 9B 69 39 4A 30
 34 19 A1 8F 39 9D E0 12 23 B6 EB 7D 59 CF 3A 5F
 09 B8 D7 53 4B B9 35 0D 5B 36 F7 BC AA C3 9F DF
 68 DD 65 BC 53 AD 19 DE 82 00 3E 7C FB 6C 43 69
 6E A5 FC 08 CF FE 42 0B 90 25 E5 14 D4 5F CF 2E
 19 DF 38 25 D1 B0 EC 67 BD 31 0D 95 E7 9B C4 36
 05 B6 FD 96 61 8A 78 35 4E 1B AD 3B 28 16 4B A7
 FA 6E 7D B8 07 C3 B6 ED 82 C8 30 8B 60 A1 B4 85
 8D 00 09 BD 1B 9E 92 B1 D3 F0 31 9C 86 99 6C 4B
 48 5F 8B D6 5B CA 1A FF 51 37 0A FC 03 4B 18 04
 00 08 89 DD 52 6D 59 D1 74 07 82 1A ED 8F F3 24
 28 C9 F6 E2 D5 EA 03 90 80 16 4F 99 00 37 0F DF
 F6 C9 32 25 0A 93 FB 2F 69 1D 23 C5 AC 78 19 53
 8E E5 61 1B A0 D0 3C 09 3B B4 8E 8C E6 B3 ED 58
 B3 E0 5C 6B DF ED CF BF A9 BE 13 0E 3E 36 26 31
 91 AF 83 A2 1E 3E A2 A6 FD E3 E6 99 73 1C 75 D2
 DE 82 38 13 C7 2D 68 72 ED 6B 76 73 B4 B9 47 9E
 B8 EF 2F F6 40 42 2A 2F 84 6C 2E 03 64 37 E6 21
 F2 4C F1 82 6E 1A 27 64 79 EC 6A 7C D2 8B 4C DA
 74 34 E3 98 33 25 55 62 14 21 00 15 73 36 CD 20
 E8 CE 76 F6 9D 6A 6A 58 36 F7 BA 15 CF E5 E9 35
 70 E1 9A F8 21 D1 07 34 F1 59 7F B0 E4 D6 83 41
 4C 6F 99 44 EB 0B E7 BF 15 6F 7C 32 F5 6F 94 C1
 0A F9 FD 81 CF 6F E8 02 E2 93 8A C2 0F AC 90 0D
 9E 44 23 00 DC A4 11 CB 59 EE A4 E4 73 D2 C1 62
 FF DC CE D9 0D E4 02 55 45 A2 31 F7 69 66 3C D0
 C4 29 66 8E A7 B6 4F 54 9C 65 6D 92 8F 25 65 D7
 3D 80 80 C1 89 BE 7C 80 9E C9 86 5D A6 74 98 33
 79 39 0A 8D DB 8A 16 93 16 66 EB 2E E5 F4 86 45
 DA B1 60 FC B1 98 6C 49 BE 94 DA 52 BE 0B FE 1E
 A2 36 88 6E 39 FD 50 88 7B 40 A9 45 9E 36 15 19
 4C 87 CD 9A 75 33 98 DE 68 27 19 91 3A D5 1C C8
 7F 1A A0 C0 EE 44 F5 FE 24 1B EA 03 CB A5 AA 22
 3F 87 E1 6A F7 8B D5 69 E0 21 0A 2B DD 5F 34 0D
 79 2F 55 4B BC 35 72 C6 EC 0B EA 72 39 91 A0 90
 F1 38 A9 69 1A D7 A5 66 2D DC 0B 75 35 74 4A DD
 E1 97 01 9B 68 9D DB FC 4C 06 08 18 22 3F DA A1
 96 57 4D 5B 48 CD 24 17 72 8B 74 DE C7 EC AD 9F
 7D F6 FF 98 C1 07 03 0A 1D 21 4F F7 87 A9 BB B1
 E1 8F FA 8B 5E F1 0D 81 9A 2D 20 9A 4B 34 AB 2F
 F4 A5 30 70 F7 F2 7A F5 EA 02 99 70 28 1C 94 98
 06 B7 95 E8 E0 A8 75 D1 20 54 7D 40 C0 E4 2F C9
 44 4D 7C B7 25 50 02 FA 09 C8 60 3B 20 D4 10 84
 96 D7 C1 20 76 13 FD DD 83 CB AC 2F 73 58 4D 76
 AC 7C 79 DB E5 22 98 AC 79 94 7B FC CB CE D5 47
 5C 67 94 67 0B 36 59 9A EA 50 94 8D BF 56 47 C7
 CA 4C 29 1C 30 12 E5 CC 86 09 DF 95 5B F0 6F F4
 05 AC 87 79 F4 50 20 9A F6 16 2C 27 A2 7E CD 2D
 7D E3 58 89 1B 27 55 A5 13 41 91 33 B0 56 EF A0
 18 74 4A D7 A7 46 5E 65 CC 91 32 A9 FF F4 26 A4
 67 2B 14 90 C7 54 45 70 3A 99 0A 3C D5 FB 95 AD
 55 3A 4F BA 2D 1C FF CD 6C C7 5B DB CE 0E B9 42
 A8 13 47 08 E5 9C 95 CE 41 81 7E 6D 46 DC C9 90
 97 D9 40 9F B3 B9 67 C4 8D 41 AC 67 EF 93 19 C8
 4F C2 5F 55 CC 24 48 F8 E3 C6 21 9D BC 89 98 8C
 B4 F0 B5 EF 6D 63 3B 8D 61 B6 D8 52 0F 62 C2 DC
 A3 79 35 28 FB 72 B6 FE A0 71 83 A7 22 00 21 23
 4A B5 F0 59 B8 5F 56 FD 48 98 F6 2C A7 43 4A ED
 D9 0D BE 41 94 11 9D 1C 0C 38 51 81 9D AB 9D FA
 73 44 13 CD CF DE A3 39 EE 94 07 2B 3F 1A 9E 46
 BD D2 7E E8 26 17 79 2F D7 B2 74 88 89 B3 23 21
 A3 F9 AF 74 50 46 DD E9 C4 B3 CA 81 D4 25 EB 31
 E7 B5 F0 13 D9 F0 9D F1 50 5B DE C5 2C 0F 3F DB
 B7 0F 4D 15 9B 26 73 3A 28 C3 56 70 4F E1 BF 5D
 2A 96 4C 41 EA CB 5F B5 7A 15 77 9B D6 A3 CA E6
 2B C2 A4 43 BE 3D 68 4E 65 2D FA D3 88 22 8E 6B
 0E 3E 8E F6 3B 0E 46 C7 82 E4 D0 E5 87 71 D1 CC
 0B FE 67 7E 2F D6 DC A1 EA 5E 57 E5 4D 5D DC B5
 C7 EC 36 54 B8 10 32 FB 9E A7 70 F5 51 E1 66 C0
 D8 02 23 1B 3C C3 A1 16 76 3D 1A B2 0C AC 12 99
 C1 65 12 C3 D0 A6 56 5D 2B 67 BC E8 B9 D2 B4 85
 ED 5C A0 91 FC EE E5 5C AE F5 D3 50 38 0A F6 03
 5A 2A A7 E5 C9 96 87 8E 85 F7 B4 42 8A EA E0 62
 56 FC 25 0E 96 07 7E 86 C0 1A E9 9C 40 27 52 7D
 10 D0 41 D3 98 08 B4 8E 16 DD 35 12 E4 AB 3D A5
 9D 92 8B 41 4A EE 0D 3D 77 D5 FE A2 B4 10 A2 EB
 66 CF 62 18 2B 4A ED 1B E7 12 47 05 A8 9A 37 58
 D9 CD 14 D4 71 C0 22 F2 E5 66 EB 0E A1 82 E6 10
 19 F2 D5 13 58 E7 E6 52 BD 87 EA 35 F3 45 9E 1D
 C7 F2 18 5A 3A B3 6D 2C 5A BF D5 95 64 AD 7E F8
 0A D7 D7 BE 45 A5 DA 5F 5F 8E B6 87 BF D3 69 1F
 AF 36 57 51 96 B1 D6 D6 8B 3C 9A 8D CD A3 79 08
 5E 54 83 07 79 9E EE 73 F1 CF B8 A2 4D E2 9A 62
 36 91 E8 0C F8 4D 19 22 67 BF BE B2 DA D6 AB DD
 6E 39 C3 44 C5 10 57 76 63 DF D7 A7 20 24 91 F0
 97 8C EC A4 64 17 85 E5 1B BB 06 3F D5 E3 9A F8
 DE 16 8D E8 C9 7D C7 31 96 C9 E5 46 8D 3F 32 AA
 FD A1 D4 04 BE 27 2A C2 7B EC E5 26 78 9B 59 5C
 20 66 07 D8 7D 10 C5 07 0C 7E 85 18 F5 B1 80 9D
 82 06 FE 02 A7 9D 19 8F E3 37 E3 17 76 E5 55 F8
 17 B8 C5 EF 86 39 1D 0D 35 6E F8 BE D9 10 A4 17
 B2 E6 79 4E 61 DF FD 59 AA 73 A5 C0 90 B1 99 54
 77 1F 4F 79 30 85 28 57 B5 2C 50 08 56 14 29 B7
 D0 4B C1 F7 24 40 25 79 83 FE DA B7 B4 2B 2D 85
 E3 51 81 65 7F C3 DC 89 88 5F 06 31 4A 1C E0 D4
 4C 86 2C BC 5E 54 AA 4B 02 2C AD 06 75 C5 47 DE
 75 60 05 43 8C 34 A9 E4 AB 56 95 4B AB 8C 44 22
 62 9E 6D E3 F3 1F 70 C7 02 F5 80 12 FF 67 E6 FB
 4D 4D 2C 05 41 92 CC 8D BF 57 C5 E0 83 E7 15 5A
 C5 19 B1 2D 3C 38 4D 6C AB 89 3C 05 30 0A 3B 4D
 FF 23 CB 29 EA 2C 66 D6 7A 1E 88 9A 62 41 06 2A
 BD 65 86 0B 86 75 65 74 EC 59 AE 94 31 EA D9 C4
 CA 14 A4 B3 4D C8 3B 2C 1C 0E 49 7E 18 3E 2B 92
 83 9B A4 51 5F 1E 38 A7 95 DD 50 6A 3D 0E 69 DB
 D1 5B 5E CE 66 95 2C 8B 0B 45 4C 74 63 9B 99 E5
 FA 9D 89 F7 51 73 A5 CA B7 06 08 11 73 92 8E 38
 FE 04 F4 0D 1D 55 14 2D 3F 8C 65 35 54 53 AF 72
 15 90 E9 CE 3B AE 55 41 72 64 34 28 B2 AD 7F 11
 2F 4E 5C B8 EC F2 5B 34 36 65 85 32 E6 24 A7 47
 0A 61 76 D8 96 A7 7A 8B 54 49 50 74 6E 2D A3 BA
 26 6E 64 98 96 36 7F 14 44 77 BA EE 62 5C 59 6E
 E6 A3 CA 08 6F 84 36 24 6A BD B6 1E 7D 3F E9 C2
 AB 29 61 65 69 C9 1E 76 71 23 55 E9 84 98 E4 07
 5C D8 6B 5C 14 43 B8 00 47 57 3F 15 3B B7 02 BA
 F3 58 0A 46 F8 95 4B 7C 83 26 06 1A 3E 97 E5 86
 CF B9 A2 E6 96 52 2A C2 C0 17 DE CC 0B 99 69 31
 D2 4E 71 81 3B AC E4 E2 FC C9 11 83 31 9E D1 5F
 53 F2 D3 6D 19 83 4E 84 01 FD 87 DF 63 E0 A1 99
 42 56 96 EB CA 91 EF 29 BE 9E 3D 8C A3 33 79 87
 E2 27 FB 42 CE 8D 3D 0E 21 4B 9B 72 F5 64 DF 88
 AF D7 66 29 7B 86 7F 1D 55 73 DE 9F B3 E7 CD 8D
 D0 20 E7 C3 BB B0 76 A2 E7 12 97 26 6B 34 52 B8
 04 E6 2C EF 3A DD 14 0B 39 3F 38 7A 0F 97 8A BF
 D3 20 AF C9 26 91 EE 07 58 44 6F 37 A2 2C 90 E3
 28 F0 F8 D5 A6 15 9F 48 B8 AC 1C C2 B8 66 5D 89
 4F 05 7B 84 BF 32 0F 43 C5 28 FA 5C B7 5F E0 80
 CF 7F C6 97 55 F0 32 C0 93 94 FD EF 45 D3 C3 D3
 34 61 FE 35 72 18 77 93 65 7F 9F A0 13 39 D8 A3
 52 74 08 B3 82 EE 0D 27 88 37 A6 53 A5 55 88 00
 04 8F 87 10 7D 39 9E FC 0B E0 4B C6 5E 99 81 E0
 CE 2A 92 46 71 92 89 5C D5 09 93 07 A6 F1 08 4A
 DF 6B 94 7C 2B 12 B3 F2 41 BB 86 93 76 D5 7B 27
 09 E9 C5 28 5B B3 34 5B 96 21 51 62 D9 4C B7 55
 C2 32 0C 2B 20 73 B4 0D 22 51 6D B2 82 0E 1C FF
 64 7D 03 10 90 84 FF 64 10 12 7B 76 D1 31 41 65
 58 05 72 B8 58 02 ED EE C8 80 A7 66 AC F3 21 78
 A3 A5 5A C2 3C 61 E6 3E 8C 4B F1 F2 6F B6 48 D7
 BC B3 5F 54 9B BC F1 C0 F7 92 FA 58 70 31 84 C2
 AD 27 48 1E D7 B4 B3 BD D1 86 F7 2D BE 15 CF 6F
 70 59 EC 8C FE C7 01 67 37 A2 A6 D1 06 D6 BD 0C
 34 67 45 66 51 EA 1A 07 CD 68 FA 27 AB 9B 33 14
 92 CC 09 EF 9C F5 36 69 AE 54 89 76 A1 68 8A 24
 E7 20 F2 14 3A E2 8B E3 14 3E AE 50 71 0B 74 64
 40 8F A9 B9 06 DA BD 0E 72 95 4A 74 AC A1 8C 76
 11 6E 6D 5F FA 11 0E 2E FC 6B DA 90 A8 7E D6 2B
 98 12 54 1B FD 18 69 1F 2A AB F4 C7 86 B7 B0 91
 B2 4A 3D 18 29 EA ED C7 4E D3 1C 88 66 55 0B 37
 A6 D7 1C 0A 0C 3C 95 59 0C 7A C9 4F E0 55 29 FE
 F5 EE FA 43 E1 33 4C F4 41 8A 06 AD 04 7E EF A7
 FC F6 75 73 82 E5 89 3C 4F 54 08 21 96 A2 3F F2
 A3 10 35 0F B4 9B D8 B5 12 6A CE F3 B3 82 15 C2
 77 EB 02 60 4B 5C 2A 9B 4B 0B C3 5C A0 6D 8F B9
 C3 D6 24 27 99 05 10 6A 66 83 BC 3F 43 E6 D9 D8
 57 44 1D AD 95 88 68 BF EC 70 E9 CC D1 DD E8 FC
 2D B3 3B BA 5A 60 E4 8D AE 48 E8 05 38 00 86 7B
 BC 2A 76 B0 2B CF AE CF C5 61 7C 93 F2 37 DA B4
 52 69 0D F1 A2 E1 D1 41 79 E5 63 F2 38 96 14 23
 30 47 24 96 BF 6A F7 68 B9 39 B7 A9 7E 93 70 39
 A7 A1 01 A6 1A B4 39 CA A9 8B 12 B2 AA 1C D3 DD
 14 27 B3 52 F9 DA 19 A3 80 2F D4 78 61 0A 25 92
 D8 56 B0 06 7E 95 74 0F FA E9 D9 13 33 87 31 A3
 75 5B D6 82 0B DA FE B2 96 B2 BD 18 BA 85 CD 1E
 22 34 09 FA 06 C6 99 46 13 35 11 E5 5E 79 31 02
[...]
 43 4A F7 B2 98 A0 90 07 43 D5 47 6E 5E A5 DC 88
 23 29 FB 22 0F 28 2C 19 71 A2 6C 2F DF FD 43 7F
 F2 F2 F7 33 E5 6F 7B 2F 91 A0 71 A4 12 28 81 38
 C6 86 76 60 EE AE 98 6E F1 F3 D9 E5 7F 36 64 89
 F2 F3 80 A7 98 96 EF 05 90 10 02 ED D7 E3 83 08
 4A 83 96 83 FD CF E5 30 BB 04 01 E8 6B 60 B0 29
 EE 84 25 55 14 B5 A6 D6 AD F7 E4 BD 48 59 5E 5F
 73 19 01 13 11 32 2E D0 91 BF 17 F1 A4 19 C0 D1
 38 F9 6B 22 55 B9 60 CE 6D 9A 3C 9F 5E 19 5F DC
 D1 92 D4 0A 9C 7A 3B B2 D7 D2 44 B4 9C 6F 46 EA
 4C AA 13 11 DB 2D DF 02 44 84 2A 7D 60 91 F8 2F
 E7 9E 23 A9 D2 6E F8 6D 31 5B 77 39 A8 D6 00 84
 95 67 41 2A E9 76 9F 57 E9 36 F4 32 86 1D 1F F3
 4E E5 D0 7E 39 46 78 D2 42 F6 4E 56 29 D2 51 F9
 68 11 1B 4B 75 EC A3 AE 0A A3 39 0D BF 0F 8F 0A
 CD AA F4 B8 18 DB BB 3E 73 3D 6C 17 91 14 DA 24
 CE FA 01 17 10 AD 01 98 55 CC 16 D5 8E A2 83 BE
 D7 D2 47 47 C7 08 EE 3A 0F 1A CD 77 29 29 6F 9D
 B7 E2 25 36 20 A6 35 05 B9 1C E8 DC 8F 04 AD 48
 AB 89 68 AD 1F 88 73 BA 6E DA 0B 06 E9 F3 3D 82
 A2 E8 6B AC 4A 34 FA C7 EA 1F DE 03 F2 33 7E 63
 66 A9 87 27 6F C7 B9 AD CF 79 0F AB 7C C5 0E E4
 B3 16 90 E6 0F 40 CB D2 C6 1D BE A9 5C 10 A9 BE
 D6 11 16 4D F6 2A CA F0 CE 6D F4 48 4A 58 72 CE
 0F D2 25 B2 08 E8 8E E2 BE 6B 6E 5F 59 E1 B5 F6
 B2 2F 32 3A 63 90 B7 13 01 9D 09 32 23 58 64 15
 72 3B EC 25 46 2E 5A E2 F0 59 F7 3B E0 E2 79 E5
 95 DB 63 11 DB 72 8C 2D 07 50 9D 78 64 FE DD C8
 33 3A 4A 0B 8B BE BD 48 D0 80 61 0E 4A 82 F2 E3
 0B 26 8A 4E A4 AF F5 25 B7 ED 6F 78 97 E5 EB B3
 AD 63 A1 A2 D7 8B 3D 8C A7 36 02 F0 93 92 EE 6B
 12 24 2B 2F AB 15 D8 82 31 CB 08 2F 81 C1 20 B1
 6A 22 42 BF 97 13 E3 D4 17 9E 4C 46 BE E6 9C 00
 1D 2D 23 99 66 3B 06 FD E3 11 9C 69 16 83 96 5A
 B9 D5 CE 32 03 66 45 92 4F C4 12 54 95 95 E4 A4
 38 2A 05 CD E7 D3 C2 C0 DB 4B E8 38 56 3D 0B EF
 5D 8A BC DB E2 26 84 62 5C A5 C2 A0 57 CD 59 EF
 76 58 B7 81 B0 8D 9F 3E B7 6A 1E 73 80 7C BE 26
 B5 86 6A 4B 2F D2 1D 76 AA 76 4B CD E3 1A 91 33
 DB 96 52 93 CC 04 04 D4 C3 05 B7 A4 7D EC 88 B7
 A2 AE 56 DE F9 A0 18 E6 DD 14 1A 31 CB 72 DA 62
 4F 83 97 78 53 D1 8E 62 78 24 30 5C 34 4A 17 0B
 75 02 A6 C1 04 5C BE 0F 27 FE F2 B5 E6 72 AC 0C
 A6 E0 BE 47 BC 09 A9 71 2C 0D 11 3F 4C CE A5 C8
 2D 97 9B 55 A8 A5 65 A8 57 B5 E0 91 B7 13 D0 7F
 6F 68 AE 93 7F 5B A8 31 7F D3 C8 E3 01 BF FC 60
 5B 96 7F EC 80 E4 92 F0 B1 F9 B2 EB 6A DC 73 54
 9F 8F B4 4F 13 58 0C 56 61 A8 79 5B AA 6F B8 32
 47 85 44 39 FE 49 40 0C 24 20 B8 11 38 C3 61 95
 34 59 C9 3D 6C 4C 3F 1D 09 0C AC 32 27 11 13 B7
 DB F9 45 45 0C CB 44 FE 76 10 F1 59 B2 91 CC 6F
 9A 68 BC E0 36 81 E6 80 5E AD 84 AF CE 0D F7 AA
 E4 A0 01 26 42 7B 63 66 03 CF 32 4F 3D 0B 65 F2
 4A 35 29 20 9D 98 DB 6A B8 40 27 F8 0E 80 50 FC
 05 40 E9 CA E1 11 A2 1C B3 D9 6E 95 33 AB 06 6A
 35 09 41 23 42 45 1E 67 2E 5D 48 0B E7 23 29 F3
 3E 2F 3F 41 21 93 D3 63 CC E6 66 F4 E8 73 09 94
 18 BC 06 B5 3B C7 DB 5C 02 5B AB 8C 14 FA 47 55
 93 88 5D FD F4 28 39 9E D8 3E ED F9 0D 50 1F 3C
 EF C5 84 96 51 6D 7F 73 F2 EC 30 3C DD 39 04 4D
 BB EB 79 C2 EE 3B 3F 10 BD 78 8A 44 70 43 49 4D
 26 3B DD 61 9A ED 00 39 79 C5 B6 01 84 8E 87 1F
 17 4F 45 0B FB EE DF B1 22 17 D7 91 16 3A EC D7
 0F 04 B5 EC 87 2F B5 E7 CF C9 80 99 FC 7D 79 53
 D6 2F 07 79 80 F1 23 8A DB 7D 9F A7 34 97 8F AC
 3A 5F 73 A8 BB 19 20 E2 57 BC DC 64 AD 98 B4 2A
 91 CE AE E5 BD C3 0C D0 89 6C 9E B4 A8 DF 44 0D
 A2 9F DA D8 32 52 3F C9 96 93 52 A8 D5 66 89 36
 BE 70 5B 81 F6 7D 17 A9 CE 5A 3D CF 66 95 29 E3
 0F 93 56 58 B1 4E 1E 1D 07 F8 2C E2 77 31 20 45
 1A C0 09 26 8F 0E 51 EB 0E C5 91 00 47 C3 43 9E
 FB 37 FA 4E 2F 18 5D 31 B0 0D F2 55 82 90 76 F7
 51 AE FE F6 B4 D3 7E 0C 5D 45 B0 D0 CC D7 BA E3
 5F 18 F6 8F 1A C5 66 D9 0C 9F 1D 91 AC EF B7 B7
 1F CE 73 5F 14 A6 36 07 F5 AF CF 06 70 E4 68 E8
 71 4E 67 06 FD 4D 58 AA 41 DC 3B 68 AD 6C BF 06
 31 F6 2A 04 4C FE E2 51 45 D9 4F 8C F5 D6 90 9C
 92 49 37 71 56 0D 6E AA 8A 08 1F DF 2C A4 C9 D7
 E5 E6 61 B8 49 08 48 99 3E DC 89 98 C2 D6 06 92
 B5 1D A7 2D 3D EE C0 49 2A 32 28 AF 9D 2F 19 DB
 0C 41 E3 D2 1E F4 C4 DA 07 F2 79 5A 66 62 B6 0F
 FE 2F 7C 96 6E EC 61 37 5B F7 BC C8 8F 24 81 FD
 06 1D 08 D5 CF 94 2C A1 55 BD 31 97 20 A3 00 E4
 68 43 99 C2 6A EB 5F B2 54 76 BB A0 5B FD 46 34
 12 FA 1D D0 13 33 A0 95 07 84 04 F8 98 7A EF 1D
 B3 59 9C 53 E2 B7 63 0C 1B E4 23 84 A6 9E 1E 15
 40 59 CE 89 59 9E 97 2D DA 28 C6 4A F6 DA 2D 41
 02 46 32 C7 E5 AD 9B F7 B9 E6 03 AA 1D 59 18 14
 C8 F5 22 8D 0D F9 6E 38 54 96 98 B4 01 3A 5B 94
 14 DD 1E 53 6D 1E E7 B4 F2 50 0A C8 2C F1 F8 45
 8B 96 17 FE 8C FE 5D 1E B3 12 EB E8 AD BD A9 C1
 1A C0 7D 8E 3C 99 76 88 1A E4 74 55 70 27 7C AD
 78 FF E5 93 11 67 DD FA 21 15 61 8B 6D C9 97 82
 03 7F E6 4F 01 AD C7 2A 7C 4E D6 C8 44 F0 4E 75
 93 E9 5B 37 3C 7B 7B A7 91 15 4E E7 30 1D 64 A3
 1D E9 57 E6 B5 1C 7B A8 11 87 CF C9 BE 43 93 7A
 44 AD CF 94 EE 7F 2F 3A 35 59 60 13 92 81 58 09
 BA 00 F4 B0 B4 93 A8 BC BF D7 5A FF C8 3A E1 89
 A3 E7 41 4A 7E 35 17 D2 F3 5F EA C2 ED A7 4E 7B
 EF DA 0A 5D D3 82 3B B8 EC F1 57 1A 0A B7 C7 67
 05 94 75 8D D9 CF 3A 96 81 D5 66 F0 0D 8F A4 D9
 6B B4 3E 39 CC B8 BA 71 7A 08 97 A1 CB B1 8C 12
 88 02 42 91 57 D5 73 E2 77 45 E0 A1 5A 23 E0 0B
 15 2E B0 7B 00 4E AD 9D 0B 0C 9F A4 C9 FF 09 36
 02 3F 1D 19 9C B7 25 B6 D4 22 FF 9F 4B 64 69 E1
 B4 AE B1 04 5C 94 EE 29 BC C7 1D 2D 60 2A 9C 81
 93 B8 EE 43 BF 7C 2E EF C9 72 57 C0 D1 41 20 30
 E8 09 20 48 0D 34 45 C0 D4 35 88 FB D5 87 4A EE
 B9 9E 96 57 97 D9 47 DD 0A E4 E2 A0 5F 2A ED 3B
 A4 60 75 FB 5C 42 66 D1 37 62 41 6D 27 80 68 9B
 41 46 D6 19 D3 7B 6D C1 54 3E 46 99 85 52 66 3B
 C8 A3 C9 7F 3D 98 50 3F 94 38 58 2F 01 73 7E A3
 24 37 38 80 5A 92 C6 38 7F 7F 38 B9 58 E4 FB CC
 ED 8C 56 2B 27 4F 8C 7B 89 A7 2E A1 5A 3A 6D 8A
 D2 AD 86 AF 53 12 23 C0 C7 55 65 0B 73 3C EB B5
 D0 5B 72 FE 78 43 91 67 1B 9E B5 0C 85 71 84 7F
 48 3E 5B 2A 0C 79 B3 AB FC 7D 03 35 35 76 26 BF
 3D DC B0 49 D3 F1 8C 4A 93 5D A5 96 16 B0 4E E7
 D7 A0 0A 7A E7 D6 26 AE 17 A8 75 CD 60 72 F8 0A
 24 30 EA C0 2B 64 24 72 F5 EB 0D 31 8F C5 61 FD
 06 AD D2 5B 0A AE A9 FC 2E BE 59 FD F2 7B 61 29
 33 7F E5 23 8D 3C 98 4B 97 D7 CB 97 9D 36 AD C7
 D6 00 14 81 7A 4F FC 25 D7 1F 4D 5D 4F 07 DF 4C
 7E 67 E1 0E EF 37 97 B5 B3 C2 4B A4 CD 1D 49 C1
 10 FD 76 15 61 A3 92 2F CA CF DD 87 27 9E 57 7B
 C1 62 C8 2B EB E7 20 5D 7B C0 4F 55 34 BA 7C A2
 A1 84 CA B5 A7 C0 8C D9 C9 07 39 A3 F6 59 E0 F6
 E3 0E AC 7D 24 87 E2 5A 00 FE 8C 41 2E FD 73 FB
 5F D4 FB 37 67 C9 E2 C8 6D 41 04 0A 5D 22 BA 97
 27 37 2C F5 5F B9 C7 2D 58 48 FF EB 99 56 DC 4A
 C6 F1 46 0E 72 2B 23 E2 9C 36 8D 42 1A 87 29 8F
 7F 8B 1B DF 51 FD E9 29 4B 86 6C D2 B9 2B FB 9E
 84 3E 1F E1 D2 05 2C 6F 0C 80 44 ED A8 FE 63 08
 C1 B6 4D 5A 95 4C C3 32 99 98 82 3B 04 D1 79 9A
 88 B3 DE 61 C6 7F 47 6F D6 BA 11 D1 85 45 DC 20
 1C C9 C5 CC 7B 23 F7 7E 7B 65 1F 95 E2 77 94 FB
 D3 D7 EA 3A F2 4B BB E8 EE 71 11 5D C1 BF 9A F4
 09 A3 E0 C9 B6 3C 43 8A 6B 9C 6C E8 A4 9A CB 2F
 6E B4 2C 37 7F 91 5B BC 7C 59 7E D5 2B 6D B7 FA
 E9 09 E1 71 B0 CE 6A 9B C0 91 FF 7C 16 0B 57 34
 7D 93 30 90 FE 05 E8 55 4B B9 10 4A 6B 88 18 7A
 D1 83 82 3B D5 07 41 BF 57 57 D6 5E 59 C0 5B 40
 85 B5 CE 33 B9 72 BC AA 7E 6F 81 4D 40 8E 9A 0E
 8D 2A BD ED 92 59 3E 18 9A 6D 00 0F D5 E3 B9 BD
 6A 7E 3D 53 69 33 5F 2F 27 7E 24 AD 23 48 6E 13
 CF 30 53 30 28 88 2C E7 13 E4 0F 06 CC F6 B9 70
 FA 9E 63 87 6C D8 88 8F CE 88 DD 6D 50 45 33 E1
 66 C9 BF 0A C8 15 A1 90 FA 29 7E 1D E6 79 86 5B
 83 D3 6F A1 0E 68 CB FD 2B 54 D8 37 8A 16 54 01
 22 B5 90 56 C5 50 5D 63 D4 BC DF 6D C0 83 A6 E0
 E6 F0 64 A8 C2 5E F1 81 81 7A AC 4D 47 EA 69 5F
 C0 86 48 B5 2A AE 73 1E 7B 65 E4 66 39 0D EC 73
 D7 B0 02 6E 93 EA 4A EB 81 9D 22 44 B7 C0 B4 7D
 E4 8C D2 F1 E5 A0 5C 7C 8E 68 E8 AD E9 35 8B 18
 25 41 A5 3C 99 98 C8 A1 ED E5 63 0D 32 F2 D4 44
 07 F4 84 22 FB FF 6C 5D 6A 9C 57 7C 98 27 13 F8
 70 49 F3 A0 4E B7 21 2F 84 4A EA 83 4F 01 65 61
 3A 00 5A 01 E9 F9 7B 32 2C 6A 33 E7 4B 43 F8 7C
 A6 B7 B5 FF 98 38 09 39 70 16 78 8E E8 09 CF 07
 BA 00 78 5C BE 95 0B 3A 9C C0 5F 8C 04 A2 47 A3
 3A 6B 7A 7E 13 57 35 27 70 BC C8 3C 40 67 12 96
 B1 A7 BD BE 85 9D DB 8B 2F 23 F2 AF 01 6E 23 07
 FA 45 E0 D1 42 F4 4E CA AA D0 11 98 25 6E 1F A1
 3D 5D BC 03 ED 31 D8 A3 C0 9E 42 3B 05 C6 7D 9C
 12 EE 3C 9F E8 35 BF E3 03 8F 82 91 F5 A0 BF 1C
 8E AB AB 2F 32 F1 7E 3E 7B B1 6D 33 2C 6D EB 5C
 3D 09 A2 FF 8E 40 26 FB A1 FD A6 B2 C1 2E 84 B3
 D5 6E 51 88 D1 7D 64 2B C3 8F 84 5B 49 33 76 CE
 E3 0A 4C 51 DD F1 48 99 1C 15 06 A6 88 2A 20 E9
 73 EF 89 D7 FD 29 16 DB 78 71 41 83 BF 0A D8 A1
 30 08 25 57 40 A1 23 10 96 B3 C0 0D 89 8D 99 57
 65 F1 FF 6A 7E CC E0 10 FB 32 1C 6D 0E B4 61 CF
 EA DA 92 76 EA 0A F1 A8 3C CE F2 B9 66 F4 13 70
 40 6C D0 44 72 55 3F B6 2F EE C9 B0 DD 1C 3D BA
 30 E8 98 6B C4 25 7C 3B 50 8E 7F A8 6C 06 B9 61
 C1 1B 67 C6 90 33 B6 DE D4 86 F0 BD 03 FB B3 2A
 82 48 D0 A9 59 FF 51 0E 7C 89 5E E5 35 0A 95 5B
 46 50 13 33 C0 C0 A7 D6 6C BF C4 2D CB C6 E6 0F
 4F F1 A8 98 DA B5 75 CD E4 D5 0D 5C 1A C6 6E D8
 32 8A 6A 7D F1 4B F0 68 C0 FC 6A EC 46 3C 5E 48
 48 00 67 30 14 A0 4B EB 27 23 C6 CC 66 2C 70 88
 DD D7 24 98 CF CE 2C 51 CD 09 81 BF 20 CB 9C 7E
 80 7C 68 42 DA 57 A9 B1 E9 A4 D0 4A 43 9A A1 6E
 19 4A F8 E8 3E B1 44 EC 71 DC 8F 89 60 4D 8F 06
 BF E8 3C 57 A5 0A 66 FE E4 BC D5 8E C5 86 52 51
 82 4E AE 33 43 65 E1 9F 61 2D 94 47 87 60 EC D9
 4C 23 EB B5 B2 93 83 50 8F F4 A9 CA 7E C3 F0 57
 4C DA 6E 15 E8 72 B2 8D 2B 21 7C 6D 40 56 BC 4E
 F8 A1 D2 3F C6 DC 30 B7 C8 76 70 BD D8 8B E4 BC
 67 FD B7 9F 38 B5 B9 D7 BD AE 33 6A 48 3C 97 9D
 47 18 68 60 5F E8 92 53 DA F4 C8 78 53 C8 7E 20
 6A E8 BD 59 CE 6B 2F C8 E9 A5 76 91 3A 07 2B 69
 B4 54 F4 D4 47 80 65 ED B7 9F 37 17 68 49 09 32
 51 F1 AC 9B C3 E1 95 C8 1C 95 12 47 C8 D6 0C 81
 AE 83 96 86 AB 6C A5 A7 25 2B BA 37 31 6A 02 99
 76 14 4D 91 FE 1A 84 FB B6 CA FF DB 6A 4D D5 C3
 40 D4 F7 8E 4A 42 57 5A F1 D2 24 0D 47 AC 56 78
 B8 69 02 6B EA 37 B6 B2 70 45 02 BA 08 09 D6 9A
 77 E7 D9 C1 ED 79 25 04 E2 79 7F 5E FD 71 E8 9F
 FB 39 D3 F7 37 F5 5C 9A 29 CA FB 74 CC 08 73 71
 41 91 A5 43 49 49 83 72 A6 FB 07 CF A0 17 72 63
 BC 98 38 9A 72 08 AE D2 6B E3 14 80 C3 E0 60 A2
 6F 25 6D EF C0 62 F8 79 0C 3F FC 1C 02 2C F7 B7
 EB C3 25 22 01 34 89 D1 EF 2D 66 14 9F 5A ED C8
 65 30 85 CC 50 A6 67 B9 FF EF D1 FF 9A 76 D2 AD
 71 3B 8B 95 F0 1E EF A8 1C A4 2B 3D 4B 9F 95 CE
 C2 76 60 30 9C BD B5 6E B3 1D 60 CB 27 AC A4 84
 5F 5E 1E E9 F6 4B 47 E0 17 B6 17 07 3C FF 29 FE
 0D 14 E8 19 EC 87 A7 82 9B DD 3D A0 A4 60 40 95
 61 F0 82 A8 E2 CE B1 B4 3D DC 85 2E A1 57 65 8D
 48 98 C1 90 F0 BD C8 CB E4 E2 A5 6A FC 0E 5C F7
 6A 39 F7 33 67 98 ED 74 2B 7C EE 08 D4 EE 9B 62
 3A 70 35 2D 91 A4 E2 BF CB C0 79 EB 45 19 F4 D5
 7B 51 60 19 42 F6 A4 48 59 01 21 7C 1E 20 69 A8
 FA 3E 93 40 72 C1 8B F2 37 90 62 38 2C A0 F8 06
 C5 4B 7E DE 0F C9 9C 9B 01 11 77 35 1A A7 99 B2
 52 F6 8C CA 46 ED EB 4A 8C C7 E2 AB 78 ED B8 A8
 1D A1 D1 E1 D9 E7 47 90 D6 22 24 3C 0D 95 5E 15
 C8 B8 2D CB 1C 34 A1 E1 9F BB 77 A1 19 53 DC 23
 21 BE 8C 1F 57 C1 93 7D 6D 67 14 31 EC 09 F4 7E
 70 60 5C 27 18 A0 8E 3C 15 43 F3 FC 5A 19 9E 95
 1B CD 9B 60 0B 6E 05 B7 8C 7A 1A D1 C1 95 F7 2D
 50 E1 10 5C A2 2E 9F 56 3D 55 D2 DD 88 04 7C B2
 D4 D2 6A 1C D9 97 C8 11 86 4B D2 FC 3A 4B 77 2D
 DE 59 2C 92 09 B3 EC C4 95 CC F9 83 09 0E 3D FA
 DA 9C F7 DA 18 1E 29 85 DE B4 EE 5D 0C 52 52 07
 F8 E8 B7 08 3C 7F 97 28 60 95 50 18 E7 7C 88 EC
 FB 89 28 F1 33 BD BC 32 1F E1 F9 CC 14 18 A4 99
 4F 79 0E B5 C8 F6 81 5E FC 37 43 A1 D4 43 75 4F
 9B FA 51 AF C2 85 37 B0 6C E9 9C C0 B3 E2 26 12
 07 93 F4 19 B9 7E EA D7 62 41 91 51 B5 B3 48 65
 31 80 B3 8E 12 F9 1F 9B A3 47 3E F2 FB 94 EC C1
 09 59 15 72 B7 DC D2 43 D5 5C B0 25 B1 25 F9 DB
 E6 EA 8A 6D A4 21 F5 45 7D BE 6B 68 54 68 E5 0A
 35 14 1B 95 F3 36 45 FB 57 F4 5D 73 BD DD 0C 13
 C1 87 15 71 16 9A 1F 77 A4 5F 92 16 5E 01 10 BF
 D1 C6 90 58 9A 82 CC 78 24 2E A0 86 B2 A7 CC A7
 85 BF D4 7D A3 31 C6 F6 4B DF 58 B8 00 06 BF 5E
 C7 08 C2 E8 7A C0 21 A7 63 90 09 47 38 61 FA 11
 19 C7 67 6B D3 34 1D DB E8 46 FE F1 79 5B B3 7D
 20 98 BD AA 11 1A 87 22 63 30 F1 77 B7 77 64 AD
 1C A1 CF 7A AE 24 47 F6 B7 82 96 63 21 A3 B1 29
 DB 46 C9 46 6A EA 69 FD 39 50 A9 4F 63 33 57 F9
 7F 40 C9 16 72 C5 76 4C 3F BF 6F C8 3B FD F0 D4
 3C 75 3C 69 9F DE D5 8B D2 8F AA 13 8B 71 2E D5
 D6 37 E7 D5 BD 6E 19 7C F6 B2 84 F6 83 08 B5 B1
 A7 BA 8A DC B0 B5 E5 CF A5 8D 37 49 FE 54 F6 19
 58 15 59 AD C1 73 35 C5 57 81 80 1C DD AE D9 32
 24 06 DC CE 3B 26 EF 77 45 47 68 49 44 AF 5B 5E
 56 A5 85 B8 F8 6C 5B 53 DE F1 FD 12 C1 AC 57 F1
 92 BA 27 EB 4F 69 D2 8E 66 5F EF CB C3 C6 7C 4A
 49 D0 C9 87 14 E6 2B 3C 6A 49 F4 18 E7 0D 95 CE
 0F C0 43 41 67 EF D3 D1 44 8D AB 92 D3 95 90 75
 59 24 73 D7 B8 FA 68 60 19 77 F3 4B EE A5 37 0C
 64 87 77 71 BE 49 A7 45 74 61 EB DC DB 96 83 94
 67 78 9B 94 C8 3B 8A 96 39 14 D5 A2 FF E2 07 A3
 FD 5E 0D 57 97 D9 AB B5 BC 9B 34 53 07 B7 81 30
 1B 4A B0 AE 0D CF CB DC 80 38 33 DD 03 05 0D 0B
 25 71 0A 3E C0 EF 48 AA 45 62 FF 09 F2 74 55 FA
 E4 06 22 29 2A B3 D4 00 B6 4B CE 94 6D 8F 4C 82
 F6 F3 8A 53 AB A9 D9 70 6A 32 D3 F3 A6 D9 72 70
 08 3F FF D3 A3 4D C0 AF 61 7D 34 CC 4B 78 13 67
 D3 57 88 A3 2D 2F F7 38 AC CB 36 E1 B2 13 4B 92
 77 C4 C1 A8 E5 A3 08 88 7C 9E 41 3A 93 01 A9 47
 11 E3 B6 CD A6 7E E9 0F 95 87 1C 83 65 C5 34 53
 23 1F C9 70 C4 13 02 30 2E 21 12 D9 27 1B 89 75
 05 4D BE 4A C9 8D 1B DE CF A5 F9 F0 F8 2C A3 EE
 B2 B2 25 51 07 06 67 7E 1D 3E 2A 18 BA 14 91 84
 5F 47 6C 16 11 12 74 1D 82 66 9C A7 B9 C5 79 54
 DA C1 7B 2F 3E CC 1E 95 E7 D3 EF 17 F7 30 3C 77
 D1 E1 CF FB C8 85 CA 44 61 E7 CE E7 A4 6B 01 9D
 A1 12 9E F3 05 49 AE 40 D2 B7 9E 35 05 71 B9 6F
 47 C7 93 B7 FF 2B A1 97 03 16 FA 02 F7 3B 23 9F
 7A 9E 7F AB EF 6E 68 19 9D 49 71 1F 4E C6 72 21
 9D 6A E6 20 5C D9 82 4F 97 6C 90 46 81 49 2E 3F
 0E B3 9C 1D 32 79 55 6A C0 CF AF 9C A2 6B 16 AA
 FB 4D B4 4A DC 17 57 66 D3 AA DF E8 F2 E3 2F 03
 6C 6B 07 F3 EC 39 BB B3 17 42 4A 7A 25 D1 D3 53
 B0 1B 94 F5 B4 41 D5 D5 10 99 13 E7 9E 05 EB 3C
 A6 A2 96 9E DE D8 E4 39 09 69 15 38 AC F6 A3 D2
 8B DC 86 6E E4 1C B6 36 A6 38 31 B0 3E 9A 99 7C
 0A 6E E9 6C 4D 7C 85 58 39 EF E9 08 C7 25 AF 0E
 55 1C 8F A7 3F D5 CF 5C 39 4A AF 3A 49 DD 4E 08
 B5 94 7F 0A 78 01 D9 AF B8 01 03 77 D4 59 F2 C8
 4E ED 52 DD 16 26 49 7E 8D 7D 1D 23 FE 9A C1 D6
 7C 0A 5A 96 BC 73 56 37 37 98 4D 02 ED 2D 9A A0
 7E 80 8B 5D C0 84 D1 FA 35 97 03 66 76 EA 0C A0
 E2 9F F1 54 86 01 63 74 A7 4F 64 FC 00 3B 2B 81
 03 2A DF 2D E4 28 21 9B 51 99 EB D0 C2 49 BB 33
 70 4C 48 4E EC FA 7E F2 0B 68 EC 12 3A B1 A1 34
 AA 6D AE CC 9F 18 3C FB B2 64 C8 7C DD C4 B1 04
 36 31 52 BB EE DC D8 99 3D 94 2D 90 7B 9B 7C EC
 65 9C 1A 9F 9B 10 53 AC 5F B8 72 34 70 78 BC A3
 84 81 51 68 81 11 CA C8 B2 8B 4B BF ED 26 8E C5
 59 58 16 95 DE 20 3A 95 FA C4 88 BA 7F 4B A5 4F
 C4 32 3A 5B 51 AE 1B D5 51 AE F9 48 5D 34 83 6A
 8E 29 7A 80 53 0D E8 71 81 9D 5E BA 36 75 C4 1A
 24 69 EB 8D 57 60 69 61 BB 2F F3 2D DD 0A 0B DA
 9E 17 39 6B E8 5C 48 FA CE E6 46 D8 AF 68 71 CE
 B7 F8 71 31 74 F9 E9 9B 4B 74 8B 01 94 77 58 E5
 65 05 DF 58 3F 2D 74 B2 E1 55 7A C1 9D 95 8A A5
 FD 71 E3 12 75 5F 60 E7 B4 4B 41 01 DC 9C C7 91
 D2 40 E2 B0 CF 86 B2 7E AC DA 36 5F 48 5C 6A 97
 7B 0F 92 5C B3 E8 2A 50 37 2C 63 91 CA 91 08 CD
 81 EB C4 A5 92 7E AF 12 30 41 98 FA 02 A5 04 22
 3F 86 16 88 6E 29 A0 79 D1 65 34 17 C5 59 A8 18
 FD EA E7 23 9C E8 7E CA 29 10 E2 59 D1 D9 04 E4
 E0 40 9C A3 8D 07 8C CF B0 5D A0 45 29 67 69 2C
 DF AF 6D 40 74 7D 58 F3 87 46 5A 8B 37 01 BA 5B
 50 42 8D 26 E3 EB C6 B1 0E 86 16 A9 72 92 B6 D3
 B1 40 9C 2D 88 13 F8 FC 12 F6 53 17 9F 7A 06 65
 2B AC AE 5F 1B E7 E9 DE 46 56 89 94 58 10 8D 68
 A9 12 E0 82 75 53 76 BA A1 E7 3E 7A 30 30 1B 95
 46 89 02 A6 64 8E DD 78 34 E5 7F 82 31 3E 11 0B
 2E 90 C8 12 A7 FC DC F8 BE 6E 2F 93 22 4B 18 35
 EB A7 33 72 F7 E9 52 A1 14 E1 1C 14 D3 66 D4 BB
 40 D0 DF 75 F1 F8 BE A4 82 14 A2 A8 F1 7D D9 73
 69 3B 7E B1 F1 0E C6 0F AD 80 62 12 F3 80 2C BF
 B3 2D 9D E4 62 F4 BF C6 3F 33 F3 D9 FC D0 38 20
 B0 9B 08 BE A3 18 3B 62 2D 17 B3 F8 91 D8 52 7B
 BD 6C A7 D1 C1 AC 65 41 47 AB 34 C7 0A 7E 65 F6
 71 47 2D 1E E9 AE 5F B7 FF 09 7B 70 DC 9E 7C CF
 5C 71 3A 17 18 8B 86 50 AE 58 AA 76 BF DF FE A4
 6C 67 A0 9E D1 33 EE 52 1C CC 9E 89 CF D1 AF F6
 D0 53 62 05 23 F9 00 BF 20 1D 94 61 02 51 B2 69
 5F D4 52 19 AA D7 CA 2C A1 24 A5 5C 97 FD 72 A5
 08 84 F8 59 CE C3 EE EC 12 1F C4 C7 74 22 EF 95
 9B 03 EE 75 8E C9 06 0E 3F 39 4F EB 0D 17 33 CC
 B0 DF 2A E6 EE 93 FD 6D 8D D4 7E 86 80 FA EE 64
 BF 01 71 B0 C0 8B 62 A0 55 DE 66 93 E6 76 0E C0
 17 F3 29 9D 66 23 5A 3F 92 D1 2B 9E 52 77 C4 C7
 AC 13 83 89 99 3C 7F 1E 9F E0 CC A2 2A B7 06 16
 AB A3 E9 70 E7 55 F9 43 AF 59 D6 0B 9F 1C CF 2C
 2B 3B F4 EE 21 39 C8 2C 02 AF C1 0A 18 69 03 3F
 24 51 0A F8 88 40 EA 14 BF 4E 2D 65 7E 03 C9 AB
 71 D2 C2 8A E5 D8 01 07 36 C8 57 C2 DC F2 2E 24
 19 55 8E 25 60 D4 E4 02 1B 42 9E 52 59 4B ED 3D
 C7 F3 2D EE F3 94 84 AB 2B 72 FC 4A AE 39 18 C0
 31 03 0D 2B C5 CF 51 C5 8E B9 07 66 6F 2B 54 81
 87 3E 3A F9 6C F1 8B F9 86 C6 B4 51 85 09 B9 65
 F0 05 1D 28 E1 DE EC 1C 70 B5 A4 AF A1 AC 93 3D
 F2 73 7D 03 70 35 8B AA 52 C8 28 5A C2 22 7C BC
 C3 EC 56 9D 7C 4B 32 F9 08 93 71 E9 06 8D 87 A6
 4D 28 E0 58 08 15 2A 60 37 A1 B8 87 DA 73 9F 0F
 DF F8 E3 F6 BF 4A 1F 86 D7 C1 AD 25 35 18 3B 50
 75 B9 CA 10 62 B6 C5 39 74 C4 FA 3D 07 E5 E3 1F
 A0 E2 2D 6C 5A 69 F2 C6 49 7E 2D 2E 5D 59 19 AE
 60 0C 06 23 FE 69 7D 73 99 FC D7 29 22 07 9D BD
 F6 57 CE E8 9D 20 BD 38 39 F5 A1 55 61 6F 29 DE
 D7 C7 17 1D 06 37 FB AA 51 34 C2 41 2E 65 09 A3
 0B 87 61 76 66 C7 F0 4F 2A E4 7C C7 3A A2 BF 4C
 9E 1D 55 2A D2 43 F9 A4 25 B1 70 5E B3 32 3E 89
 D8 C5 3A 2F 3A FD D4 FC E5 8E 6F EE DE FE E0 3E
 D4 68 4B 55 9F A8 51 9D E8 C7 63 49 07 05 62 36
 6C 97 77 37 B6 9F C3 47 D6 7E 5B F8 ED 29 E0 74
 68 6A C9 7A 2F 80 E0 CE 08 F1 99 EA E4 08 51 CC
 91 A9 2B 96 B1 D2 5B 93 DC 09 59 DF 91 22 B8 11
 2A F7 D4 2C EE 5A 9B D4 3E 16 5B 28 C3 6E CD 1C
 50 39 AA 6A 15 FD 59 F9 A1 6E DB A1 50 E9 0E 89
 68 25 C5 65 0C 51 5F 37 CF 79 C8 6D CA 8A 97 21
 70 D4 38 B3 2D 99 97 10 BC 07 8F 46 1A F5 BB E1
 CA 28 F6 B1 29 A0 85 18 AB 80 54 EC 1E AA 12 08
 AA B9 4F C5 F2 24 97 7F 0C 5F 56 9D 37 28 13 C9
 F2 6B 8A 54 98 2D B2 20 BE 58 2A DE 20 68 C9 D5
 A0 CC B8 38 EE EB B3 4B 26 9A 91 15 79 8B C2 5E
 F1 64 CC 92 F1 03 FC 04 3A 1D 3A 84 2D 51 1F 8F
 7C 3B B4 D7 A4 D2 D9 04 CE D5 A0 8A 46 1A A9 C1
 06 D3 FF 2C CB 78 C0 1A EE 35 0E 1D 7D 45 77 A7
 2A A2 CA 19 64 68 BC AC 9A 1F 82 9A 8A 3F 98 B5
 03 F6 46 09 FF C4 47 2C 66 59 0F DC D4 1C BA 9D
 31 0A 7C 09 7C E8 5E 87 4E 0A A4 A2 FC 86 87 15
 E5 78 E9 5E 65 94 33 7F 0F 58 82 D5 7C 46 34 97
 89 FA 8A 9F 49 A4 07 C3 79 02 E0 3D 3D 98 93 72
 32 B8 63 F8 8A 8F D6 3A 56 10 E8 37 F6 B8 94 8E
 BA 51 F9 07 26 98 42 97 59 EF F1 8A 9C C1 E1 07
 C0 BC 32 98 FD E6 05 C6 97 BF 1C 91 9F 7B FB AB
 53 F5 84 CE C2 6C A7 BA 2E E2 9C 99 51 82 95 F0
 E8 CA 7F 72 32 9F EA 99 D8 DD 5B 9C 14 1D 06 95
 BD 58 60 75 93 94 5A 5E B9 30 91 3D 10 E0 18 79
 A1 BD AB C8 E3 F8 AD FD 97 5E 77 12 B3 59 91 43
 EE 75 79 53 C2 49 78 99 F0 A8 F7 F7 1E 1B F3 F4
 E8 FC 66 8F 1A 21 85 67 48 68 37 14 CB 89 A2 7A
 37 25 48 28 96 51 59 59 E0 06 4D 9E 44 6E 51 B1
 39 1C B9 68 45 32 54 E4 94 3A 55 0F 2A 8B E5 CF
 C8 DD AE AD C0 78 22 CD D5 EE 1C 91 D3 05 FE E8
 7B 79 EE 87 D1 84 CC 4E C3 03 8B AB 19 9E A5 15
 8E AF B5 C2 20 F3 6B 6E E6 47 A2 DF 7E 4E 62 93
 B5 45 F5 F0 5E C0 DC 6F EC 38 2F FD 30 C5 9C 70
 0C 1D 13 DD 29 AD 85 DC F8 CB 0E EC 7E B0 29 E2
 F2 5C AD 36 EC 8B B3 F0 12 A9 39 CF 56 5C 31 64
 44 58 D6 49 3C 4B 3C 85 EC 44 9B AA E3 63 94 A9
 29 03 A5 5B 1F FD 90 7A 5A EC 9F ED FD 50 8B 4E
 47 4F C1 4A C1 4B DB A8 D0 54 14 34 9D 0D 51 E8
 A3 A9 AC F4 44 2C D3 21 FB 31 62 A2 2A 40 16 BC
 F4 C3 BC 4F 2B AF A3 A1 11 05 85 8C 95 8E D1 85
 ED 27 03 6C CD CC 50 44 90 45 0F 7F 9B 69 87 47
 DE 6E F6 A8 D3 18 33 29 1B 91 57 22 6C D6 E9 43
 CF A7 61 2E EA 0B F2 33 50 E2 91 AD B2 9F 9F 2D
 BB 11 23 58 FA 95 E5 A2 22 5E 8D F0 B3 63 0E 33
 1D E0 46 E4 13 D0 50 DF 91 59 F5 1E C8 A3 B4 C3
 E4 EB CA 6E 4B D1 52 15 D9 75 91 A9 EF 65 97 71
 A2 7F B2 40 78 60 32 69 89 BB 84 02 2E 22 FD D5
 46 D4 1B AB 2C 73 D3 DC FF 83 89 9B 3A 57 BD A1
 D5 86 34 6D 03 6A 65 CD 5B 33 BF 1E 89 5B 76 41
 2C F9 EB 7A 6D E6 4E A6 4F C7 F6 C3 78 C5 70 A6
 0C 1B 3B 2B 60 5D 11 F2 A6 E8 68 F0 C2 44 2E 45
 10 EB C7 D2 E3 D4 6F 66 CA F8 DB F1 98 58 21 20
 77 8F 89 BF 0E 7F 00 20
* End 416784541 2523669498